===== cc1 bimod 8 =====
sim-outorder: SimpleScalar/PISA Tool Set version 3.0 of March, 2023.
Copyright (c) 1994-2003 by Todd M. Austin, Ph.D. and SimpleScalar, LLC.
All Rights Reserved. This version of SimpleScalar is licensed for academic
non-commercial use.  No portion of this work may be used by any commercial
entity, or for any commercial purpose, without the prior written permission
of SimpleScalar, LLC (info@simplescalar.com).

sim: command line: ../simplesim-3.0/sim-outorder -bpred bimod -bpred:bimod 8 cc1.ss ../inputs/cc1.in 

sim: simulation started @ Fri Apr 17 00:47:49 2026, options follow:

sim-outorder: This simulator implements a very detailed out-of-order issue
superscalar processor with a two-level memory system and speculative
execution support.  This simulator is a performance simulator, tracking the
latency of all pipeline operations.

# -config                     # load configuration from a file
# -dumpconfig                 # dump configuration to a file
# -h                    false # print help message    
# -v                    false # verbose operation     
# -d                    false # enable debug message  
# -i                    false # start in Dlite debugger
-seed                       1 # random number generator seed (0 for timer seed)
# -q                    false # initialize and terminate immediately
# -chkpt               <null> # restore EIO trace execution from <fname>
# -redir:sim           <null> # redirect simulator output to file (non-interactive only)
# -redir:prog          <null> # redirect simulated program output to file
-nice                       0 # simulator scheduling priority
-max:inst                   0 # maximum number of inst's to execute
-fastfwd                    0 # number of insts skipped before timing starts
# -ptrace              <null> # generate pipetrace, i.e., <fname|stdout|stderr> <range>
-fetch:ifqsize              4 # instruction fetch queue size (in insts)
-fetch:mplat                3 # extra branch mis-prediction latency
-fetch:speed                1 # speed of front-end of machine relative to execution core
-bpred                  bimod # branch predictor type {nottaken|taken|perfect|bimod|2lev|comb|opcodecomb}
-bpred:bimod     8 # bimodal predictor config (<table size>)
-bpred:opcode    2048 # opcode predictor config (<table_size>)
-bpred:2lev      1 1024 8 0 # 2-level predictor config (<l1size> <l2size> <hist_size> <xor>)
-bpred:comb      1024 # combining predictor config (<meta_table_size>)
-bpred:opcodecomb 1024 # opcode hybrid combining predictor config (<meta_table_size>)
-bpred:ras                  8 # return address stack size (0 for no return stack)
-bpred:btb       512 4 # BTB config (<num_sets> <associativity>)
# -bpred:spec_update       <null> # speculative predictors update in {ID|WB} (default non-spec)
-decode:width               4 # instruction decode B/W (insts/cycle)
-issue:width                4 # instruction issue B/W (insts/cycle)
-issue:inorder          false # run pipeline with in-order issue
-issue:wrongpath         true # issue instructions down wrong execution paths
-commit:width               4 # instruction commit B/W (insts/cycle)
-ruu:size                  16 # register update unit (RUU) size
-lsq:size                   8 # load/store queue (LSQ) size
-cache:dl1       dl1:128:32:4:l # l1 data cache config, i.e., {<config>|none}
-cache:dl1lat               1 # l1 data cache hit latency (in cycles)
-cache:dl2       ul2:1024:64:4:l # l2 data cache config, i.e., {<config>|none}
-cache:dl2lat               6 # l2 data cache hit latency (in cycles)
-cache:il1       il1:512:32:1:l # l1 inst cache config, i.e., {<config>|dl1|dl2|none}
-cache:il1lat               1 # l1 instruction cache hit latency (in cycles)
-cache:il2                dl2 # l2 instruction cache config, i.e., {<config>|dl2|none}
-cache:il2lat               6 # l2 instruction cache hit latency (in cycles)
-cache:flush            false # flush caches on system calls
-cache:icompress        false # convert 64-bit inst addresses to 32-bit inst equivalents
-mem:lat         18 2 # memory access latency (<first_chunk> <inter_chunk>)
-mem:width                  8 # memory access bus width (in bytes)
-tlb:itlb        itlb:16:4096:4:l # instruction TLB config, i.e., {<config>|none}
-tlb:dtlb        dtlb:32:4096:4:l # data TLB config, i.e., {<config>|none}
-tlb:lat                   30 # inst/data TLB miss latency (in cycles)
-res:ialu                   4 # total number of integer ALU's available
-res:imult                  1 # total number of integer multiplier/dividers available
-res:memport                2 # total number of memory system ports available (to CPU)
-res:fpalu                  4 # total number of floating point ALU's available
-res:fpmult                 1 # total number of floating point multiplier/dividers available
# -pcstat              <null> # profile stat(s) against text addr's (mult uses ok)
-bugcompat              false # operate in backward-compatible bugs mode (for testing only)

  Pipetrace range arguments are formatted as follows:

    {{@|#}<start>}:{{@|#|+}<end>}

  Both ends of the range are optional, if neither are specified, the entire
  execution is traced.  Ranges that start with a `@' designate an address
  range to be traced, those that start with an `#' designate a cycle count
  range.  All other range values represent an instruction count range.  The
  second argument, if specified with a `+', indicates a value relative
  to the first argument, e.g., 1000:+100 == 1000:1100.  Program symbols may
  be used in all contexts.

    Examples:   -ptrace FOO.trc #0:#1000
                -ptrace BAR.trc @2000:
                -ptrace BLAH.trc :1500
                -ptrace UXXE.trc :
                -ptrace FOOBAR.trc @main:+278

  Branch predictor configuration examples for 2-level predictor:
    Configurations:   N, M, W, X
      N   # entries in first level (# of shift register(s))
      W   width of shift register(s)
      M   # entries in 2nd level (# of counters, or other FSM)
      X   (yes-1/no-0) xor history and address for 2nd level index
    Sample predictors:
      GAg     : 1, W, 2^W, 0
      GAp     : 1, W, M (M > 2^W), 0
      PAg     : N, W, 2^W, 0
      PAp     : N, W, M (M == 2^(N+W)), 0
      gshare  : 1, W, 2^W, 1
  Predictor `comb' combines a bimodal and a 2-level predictor.

  The cache config parameter <config> has the following format:

    <name>:<nsets>:<bsize>:<assoc>:<repl>

    <name>   - name of the cache being defined
    <nsets>  - number of sets in the cache
    <bsize>  - block size of the cache
    <assoc>  - associativity of the cache
    <repl>   - block replacement strategy, 'l'-LRU, 'f'-FIFO, 'r'-random

    Examples:   -cache:dl1 dl1:4096:32:1:l
                -dtlb dtlb:128:4096:32:r

  Cache levels can be unified by pointing a level of the instruction cache
  hierarchy at the data cache hiearchy using the "dl1" and "dl2" cache
  configuration arguments.  Most sensible combinations are supported, e.g.,

    A unified l2 cache (il2 is pointed at dl2):
      -cache:il1 il1:128:64:1:l -cache:il2 dl2
      -cache:dl1 dl1:256:32:1:l -cache:dl2 ul2:1024:64:2:l

    Or, a fully unified cache hierarchy (il1 pointed at dl1):
      -cache:il1 dl1
      -cache:dl1 ul1:256:32:1:l -cache:dl2 ul2:1024:64:2:l



sim: ** starting performance simulation **
warning: syscall: sigvec ignored
warning: syscall: sigvec ignored
 label_rtx emit_jump expand_label expand_goto expand_goto_internal expand_fixup fixup_gotos expand_asm expand_asm_operands expand_expr_stmt clear_last_expr expand_start_stmt_expr expand_end_stmt_expr expand_start_cond expand_end_cond expand_start_else expand_end_else expand_start_loop expand_start_loop_continue_elsewhere expand_loop_continue_here expand_end_loop expand_continue_loop expand_exit_loop expand_exit_loop_if_false expand_exit_something expand_null_return expand_null_return_1 expand_return drop_through_at_end_p tail_recursion_args expand_start_bindings use_variable use_variable_after expand_end_bindings expand_decl expand_decl_init expand_anon_union_decl expand_cleanups fixup_cleanups move_cleanups_up expand_start_case expand_start_case_dummy expand_end_case_dummy pushcase pushcase_range check_for_full_enumeration_handling expand_end_case do_jump_if_equal group_case_nodes balance_case_nodes node_has_low_bound node_has_high_bound node_is_bounded emit_jump_if_reachable emit_case_nodes get_frame_size assign_stack_local put_var_into_stack fixup_var_refs fixup_var_refs_insns fixup_var_refs_1 fixup_memory_subreg walk_fixup_memory_subreg fixup_stack_1 optimize_bit_field max_parm_reg_num get_first_nonparm_insn parm_stack_loc assign_parms get_structure_value_addr uninitialized_vars_warning setjmp_protect expand_function_start expand_function_end
time in parse: 0.000000
time in integration: 0.000000
time in jump: 0.000000
time in cse: 0.000000
time in loop: 0.000000
time in cse2: 0.000000
time in flow: 0.000000
time in combine: 0.000000
time in sched: 0.000000
time in local-alloc: 0.000000
time in global-alloc: 0.000000
time in sched2: 0.000000
time in dbranch: 0.000000
time in shorten-branch: 0.000000
time in stack-reg: 0.000000
time in final: 0.000000
time in varconst: 0.000000
time in symout: 0.000000
time in dump: 0.000000

sim: ** simulation statistics **
sim_num_insn              119403444 # total number of instructions committed
sim_num_refs               44167676 # total number of loads and stores committed
sim_num_loads              27853167 # total number of loads committed
sim_num_stores         16314509.0000 # total number of stores committed
sim_num_branches           24627128 # total number of branches committed
sim_elapsed_time                 37 # total simulation time in seconds
sim_inst_rate          3227120.1081 # simulation speed (in insts/sec)
sim_total_insn            158848155 # total number of instructions executed
sim_total_refs             58811983 # total number of loads and stores executed
sim_total_loads            39071989 # total number of loads executed
sim_total_stores       19739994.0000 # total number of stores executed
sim_total_branches         32734522 # total number of branches executed
sim_cycle                 160395025 # total simulation time in cycles
sim_IPC                      0.7444 # instructions per cycle
sim_CPI                      1.3433 # cycles per instruction
sim_exec_BW                  0.9904 # total instructions (mis-spec + committed) per cycle
sim_IPB                      4.8485 # instruction per branch
IFQ_count                 215690368 # cumulative IFQ occupancy
IFQ_fcount                 43200233 # cumulative IFQ full count
ifq_occupancy                1.3447 # avg IFQ occupancy (insn's)
ifq_rate                     0.9904 # avg IFQ dispatch rate (insn/cycle)
ifq_latency                  1.3578 # avg IFQ occupant latency (cycle's)
ifq_full                     0.2693 # fraction of time (cycle's) IFQ was full
RUU_count                 749120813 # cumulative RUU occupancy
RUU_fcount                 11341034 # cumulative RUU full count
ruu_occupancy                4.6705 # avg RUU occupancy (insn's)
ruu_rate                     0.9904 # avg RUU dispatch rate (insn/cycle)
ruu_latency                  4.7160 # avg RUU occupant latency (cycle's)
ruu_full                     0.0707 # fraction of time (cycle's) RUU was full
LSQ_count                 279213896 # cumulative LSQ occupancy
LSQ_fcount                  9136319 # cumulative LSQ full count
lsq_occupancy                1.7408 # avg LSQ occupancy (insn's)
lsq_rate                     0.9904 # avg LSQ dispatch rate (insn/cycle)
lsq_latency                  1.7577 # avg LSQ occupant latency (cycle's)
lsq_full                     0.0570 # fraction of time (cycle's) LSQ was full
sim_slip                 1028962290 # total number of slip cycles
avg_sim_slip                 8.6175 # the average slip between issue and retirement
bpred_bimod.lookups        34930258 # total number of bpred lookups
bpred_bimod.updates        24627128 # total number of updates
bpred_bimod.addr_hits      15824482 # total number of address-predicted hits
bpred_bimod.dir_hits       17096060 # total number of direction-predicted hits (includes addr-hits)
bpred_bimod.misses          7531068 # total number of misses
bpred_bimod.jr_hits          974981 # total number of address-predicted hits for JR's
bpred_bimod.jr_seen         1985634 # total number of JR's seen
bpred_bimod.jr_non_ras_hits.PP       970067 # total number of address-predicted hits for non-RAS JR's
bpred_bimod.jr_non_ras_seen.PP      1980720 # total number of non-RAS JR's seen
bpred_bimod.bpred_addr_rate    0.6426 # branch address-prediction rate (i.e., addr-hits/updates)
bpred_bimod.bpred_dir_rate    0.6942 # branch direction-prediction rate (i.e., all-hits/updates)
bpred_bimod.bpred_jr_rate    0.4910 # JR address-prediction rate (i.e., JR addr-hits/JRs seen)
bpred_bimod.bpred_jr_non_ras_rate.PP    0.4898 # non-RAS JR addr-pred rate (ie, non-RAS JR hits/JRs seen)
bpred_bimod.retstack_pushes      2506439 # total number of address pushed onto ret-addr stack
bpred_bimod.retstack_pops         5133 # total number of address popped off of ret-addr stack
bpred_bimod.used_ras.PP         4914 # total number of RAS predictions used
bpred_bimod.ras_hits.PP         4914 # total number of RAS hits
bpred_bimod.ras_rate.PP    1.0000 # RAS prediction rate (i.e., RAS hits/used RAS)
il1.accesses              180934173 # total number of accesses
il1.hits                  170150259 # total number of hits
il1.misses                 10783914 # total number of misses
il1.replacements           10783402 # total number of replacements
il1.writebacks                    0 # total number of writebacks
il1.invalidations                 0 # total number of invalidations
il1.miss_rate                0.0596 # miss rate (i.e., misses/ref)
il1.repl_rate                0.0596 # replacement rate (i.e., repls/ref)
il1.wb_rate                  0.0000 # writeback rate (i.e., wrbks/ref)
il1.inv_rate                 0.0000 # invalidation rate (i.e., invs/ref)
dl1.accesses               48133501 # total number of accesses
dl1.hits                   47416533 # total number of hits
dl1.misses                   716968 # total number of misses
dl1.replacements             716456 # total number of replacements
dl1.writebacks               222883 # total number of writebacks
dl1.invalidations                 0 # total number of invalidations
dl1.miss_rate                0.0149 # miss rate (i.e., misses/ref)
dl1.repl_rate                0.0149 # replacement rate (i.e., repls/ref)
dl1.wb_rate                  0.0046 # writeback rate (i.e., wrbks/ref)
dl1.inv_rate                 0.0000 # invalidation rate (i.e., invs/ref)
ul2.accesses               11723765 # total number of accesses
ul2.hits                   11246230 # total number of hits
ul2.misses                   477535 # total number of misses
ul2.replacements             473439 # total number of replacements
ul2.writebacks                55495 # total number of writebacks
ul2.invalidations                 0 # total number of invalidations
ul2.miss_rate                0.0407 # miss rate (i.e., misses/ref)
ul2.repl_rate                0.0404 # replacement rate (i.e., repls/ref)
ul2.wb_rate                  0.0047 # writeback rate (i.e., wrbks/ref)
ul2.inv_rate                 0.0000 # invalidation rate (i.e., invs/ref)
itlb.accesses             180934173 # total number of accesses
itlb.hits                 180789313 # total number of hits
itlb.misses                  144860 # total number of misses
itlb.replacements            144796 # total number of replacements
itlb.writebacks                   0 # total number of writebacks
itlb.invalidations                0 # total number of invalidations
itlb.miss_rate               0.0008 # miss rate (i.e., misses/ref)
itlb.repl_rate               0.0008 # replacement rate (i.e., repls/ref)
itlb.wb_rate                 0.0000 # writeback rate (i.e., wrbks/ref)
itlb.inv_rate                0.0000 # invalidation rate (i.e., invs/ref)
dtlb.accesses              48473875 # total number of accesses
dtlb.hits                  48470114 # total number of hits
dtlb.misses                    3761 # total number of misses
dtlb.replacements              3633 # total number of replacements
dtlb.writebacks                   0 # total number of writebacks
dtlb.invalidations                0 # total number of invalidations
dtlb.miss_rate               0.0001 # miss rate (i.e., misses/ref)
dtlb.repl_rate               0.0001 # replacement rate (i.e., repls/ref)
dtlb.wb_rate                 0.0000 # writeback rate (i.e., wrbks/ref)
dtlb.inv_rate                0.0000 # invalidation rate (i.e., invs/ref)
sim_invalid_addrs                 0 # total non-speculative bogus addresses seen (debug var)
ld_text_base             0x00400000 # program text (code) segment base
ld_text_size                2166768 # program text (code) size in bytes
ld_data_base             0x10000000 # program initialized data segment base
ld_data_size                 264644 # program init'ed `.data' and uninit'ed `.bss' size in bytes
ld_stack_base            0x7fffc000 # program stack segment base (highest address in stack)
ld_stack_size                 16384 # program initial stack size
ld_prog_entry            0x00400140 # program entry point (initial PC)
ld_environ_base          0x7fff8000 # program environment base address address
ld_target_big_endian              0 # target executable endian-ness, non-zero if big endian
mem.page_count                  806 # total number of pages allocated
mem.page_mem                  3224k # total size of memory pages allocated
mem.ptab_misses               30463 # total first level page table misses
mem.ptab_accesses        1306692881 # total page table accesses
mem.ptab_miss_rate           0.0000 # first level page table miss rate

===== cc1 bimod 16 =====
sim-outorder: SimpleScalar/PISA Tool Set version 3.0 of March, 2023.
Copyright (c) 1994-2003 by Todd M. Austin, Ph.D. and SimpleScalar, LLC.
All Rights Reserved. This version of SimpleScalar is licensed for academic
non-commercial use.  No portion of this work may be used by any commercial
entity, or for any commercial purpose, without the prior written permission
of SimpleScalar, LLC (info@simplescalar.com).

sim: command line: ../simplesim-3.0/sim-outorder -bpred bimod -bpred:bimod 16 cc1.ss ../inputs/cc1.in 

sim: simulation started @ Fri Apr 17 00:48:26 2026, options follow:

sim-outorder: This simulator implements a very detailed out-of-order issue
superscalar processor with a two-level memory system and speculative
execution support.  This simulator is a performance simulator, tracking the
latency of all pipeline operations.

# -config                     # load configuration from a file
# -dumpconfig                 # dump configuration to a file
# -h                    false # print help message    
# -v                    false # verbose operation     
# -d                    false # enable debug message  
# -i                    false # start in Dlite debugger
-seed                       1 # random number generator seed (0 for timer seed)
# -q                    false # initialize and terminate immediately
# -chkpt               <null> # restore EIO trace execution from <fname>
# -redir:sim           <null> # redirect simulator output to file (non-interactive only)
# -redir:prog          <null> # redirect simulated program output to file
-nice                       0 # simulator scheduling priority
-max:inst                   0 # maximum number of inst's to execute
-fastfwd                    0 # number of insts skipped before timing starts
# -ptrace              <null> # generate pipetrace, i.e., <fname|stdout|stderr> <range>
-fetch:ifqsize              4 # instruction fetch queue size (in insts)
-fetch:mplat                3 # extra branch mis-prediction latency
-fetch:speed                1 # speed of front-end of machine relative to execution core
-bpred                  bimod # branch predictor type {nottaken|taken|perfect|bimod|2lev|comb|opcodecomb}
-bpred:bimod     16 # bimodal predictor config (<table size>)
-bpred:opcode    2048 # opcode predictor config (<table_size>)
-bpred:2lev      1 1024 8 0 # 2-level predictor config (<l1size> <l2size> <hist_size> <xor>)
-bpred:comb      1024 # combining predictor config (<meta_table_size>)
-bpred:opcodecomb 1024 # opcode hybrid combining predictor config (<meta_table_size>)
-bpred:ras                  8 # return address stack size (0 for no return stack)
-bpred:btb       512 4 # BTB config (<num_sets> <associativity>)
# -bpred:spec_update       <null> # speculative predictors update in {ID|WB} (default non-spec)
-decode:width               4 # instruction decode B/W (insts/cycle)
-issue:width                4 # instruction issue B/W (insts/cycle)
-issue:inorder          false # run pipeline with in-order issue
-issue:wrongpath         true # issue instructions down wrong execution paths
-commit:width               4 # instruction commit B/W (insts/cycle)
-ruu:size                  16 # register update unit (RUU) size
-lsq:size                   8 # load/store queue (LSQ) size
-cache:dl1       dl1:128:32:4:l # l1 data cache config, i.e., {<config>|none}
-cache:dl1lat               1 # l1 data cache hit latency (in cycles)
-cache:dl2       ul2:1024:64:4:l # l2 data cache config, i.e., {<config>|none}
-cache:dl2lat               6 # l2 data cache hit latency (in cycles)
-cache:il1       il1:512:32:1:l # l1 inst cache config, i.e., {<config>|dl1|dl2|none}
-cache:il1lat               1 # l1 instruction cache hit latency (in cycles)
-cache:il2                dl2 # l2 instruction cache config, i.e., {<config>|dl2|none}
-cache:il2lat               6 # l2 instruction cache hit latency (in cycles)
-cache:flush            false # flush caches on system calls
-cache:icompress        false # convert 64-bit inst addresses to 32-bit inst equivalents
-mem:lat         18 2 # memory access latency (<first_chunk> <inter_chunk>)
-mem:width                  8 # memory access bus width (in bytes)
-tlb:itlb        itlb:16:4096:4:l # instruction TLB config, i.e., {<config>|none}
-tlb:dtlb        dtlb:32:4096:4:l # data TLB config, i.e., {<config>|none}
-tlb:lat                   30 # inst/data TLB miss latency (in cycles)
-res:ialu                   4 # total number of integer ALU's available
-res:imult                  1 # total number of integer multiplier/dividers available
-res:memport                2 # total number of memory system ports available (to CPU)
-res:fpalu                  4 # total number of floating point ALU's available
-res:fpmult                 1 # total number of floating point multiplier/dividers available
# -pcstat              <null> # profile stat(s) against text addr's (mult uses ok)
-bugcompat              false # operate in backward-compatible bugs mode (for testing only)

  Pipetrace range arguments are formatted as follows:

    {{@|#}<start>}:{{@|#|+}<end>}

  Both ends of the range are optional, if neither are specified, the entire
  execution is traced.  Ranges that start with a `@' designate an address
  range to be traced, those that start with an `#' designate a cycle count
  range.  All other range values represent an instruction count range.  The
  second argument, if specified with a `+', indicates a value relative
  to the first argument, e.g., 1000:+100 == 1000:1100.  Program symbols may
  be used in all contexts.

    Examples:   -ptrace FOO.trc #0:#1000
                -ptrace BAR.trc @2000:
                -ptrace BLAH.trc :1500
                -ptrace UXXE.trc :
                -ptrace FOOBAR.trc @main:+278

  Branch predictor configuration examples for 2-level predictor:
    Configurations:   N, M, W, X
      N   # entries in first level (# of shift register(s))
      W   width of shift register(s)
      M   # entries in 2nd level (# of counters, or other FSM)
      X   (yes-1/no-0) xor history and address for 2nd level index
    Sample predictors:
      GAg     : 1, W, 2^W, 0
      GAp     : 1, W, M (M > 2^W), 0
      PAg     : N, W, 2^W, 0
      PAp     : N, W, M (M == 2^(N+W)), 0
      gshare  : 1, W, 2^W, 1
  Predictor `comb' combines a bimodal and a 2-level predictor.

  The cache config parameter <config> has the following format:

    <name>:<nsets>:<bsize>:<assoc>:<repl>

    <name>   - name of the cache being defined
    <nsets>  - number of sets in the cache
    <bsize>  - block size of the cache
    <assoc>  - associativity of the cache
    <repl>   - block replacement strategy, 'l'-LRU, 'f'-FIFO, 'r'-random

    Examples:   -cache:dl1 dl1:4096:32:1:l
                -dtlb dtlb:128:4096:32:r

  Cache levels can be unified by pointing a level of the instruction cache
  hierarchy at the data cache hiearchy using the "dl1" and "dl2" cache
  configuration arguments.  Most sensible combinations are supported, e.g.,

    A unified l2 cache (il2 is pointed at dl2):
      -cache:il1 il1:128:64:1:l -cache:il2 dl2
      -cache:dl1 dl1:256:32:1:l -cache:dl2 ul2:1024:64:2:l

    Or, a fully unified cache hierarchy (il1 pointed at dl1):
      -cache:il1 dl1
      -cache:dl1 ul1:256:32:1:l -cache:dl2 ul2:1024:64:2:l



sim: ** starting performance simulation **
warning: syscall: sigvec ignored
warning: syscall: sigvec ignored
 label_rtx emit_jump expand_label expand_goto expand_goto_internal expand_fixup fixup_gotos expand_asm expand_asm_operands expand_expr_stmt clear_last_expr expand_start_stmt_expr expand_end_stmt_expr expand_start_cond expand_end_cond expand_start_else expand_end_else expand_start_loop expand_start_loop_continue_elsewhere expand_loop_continue_here expand_end_loop expand_continue_loop expand_exit_loop expand_exit_loop_if_false expand_exit_something expand_null_return expand_null_return_1 expand_return drop_through_at_end_p tail_recursion_args expand_start_bindings use_variable use_variable_after expand_end_bindings expand_decl expand_decl_init expand_anon_union_decl expand_cleanups fixup_cleanups move_cleanups_up expand_start_case expand_start_case_dummy expand_end_case_dummy pushcase pushcase_range check_for_full_enumeration_handling expand_end_case do_jump_if_equal group_case_nodes balance_case_nodes node_has_low_bound node_has_high_bound node_is_bounded emit_jump_if_reachable emit_case_nodes get_frame_size assign_stack_local put_var_into_stack fixup_var_refs fixup_var_refs_insns fixup_var_refs_1 fixup_memory_subreg walk_fixup_memory_subreg fixup_stack_1 optimize_bit_field max_parm_reg_num get_first_nonparm_insn parm_stack_loc assign_parms get_structure_value_addr uninitialized_vars_warning setjmp_protect expand_function_start expand_function_end
time in parse: 0.000000
time in integration: 0.000000
time in jump: 0.000000
time in cse: 0.000000
time in loop: 0.000000
time in cse2: 0.000000
time in flow: 0.000000
time in combine: 0.000000
time in sched: 0.000000
time in local-alloc: 0.000000
time in global-alloc: 0.000000
time in sched2: 0.000000
time in dbranch: 0.000000
time in shorten-branch: 0.000000
time in stack-reg: 0.000000
time in final: 0.000000
time in varconst: 0.000000
time in symout: 0.000000
time in dump: 0.000000

sim: ** simulation statistics **
sim_num_insn              119403444 # total number of instructions committed
sim_num_refs               44167676 # total number of loads and stores committed
sim_num_loads              27853167 # total number of loads committed
sim_num_stores         16314509.0000 # total number of stores committed
sim_num_branches           24627128 # total number of branches committed
sim_elapsed_time                 40 # total simulation time in seconds
sim_inst_rate          2985086.1000 # simulation speed (in insts/sec)
sim_total_insn            157223644 # total number of instructions executed
sim_total_refs             58113949 # total number of loads and stores executed
sim_total_loads            38478384 # total number of loads executed
sim_total_stores       19635565.0000 # total number of stores executed
sim_total_branches         32196482 # total number of branches executed
sim_cycle                 158373812 # total simulation time in cycles
sim_IPC                      0.7539 # instructions per cycle
sim_CPI                      1.3264 # cycles per instruction
sim_exec_BW                  0.9927 # total instructions (mis-spec + committed) per cycle
sim_IPB                      4.8485 # instruction per branch
IFQ_count                 214753925 # cumulative IFQ occupancy
IFQ_fcount                 43216775 # cumulative IFQ full count
ifq_occupancy                1.3560 # avg IFQ occupancy (insn's)
ifq_rate                     0.9927 # avg IFQ dispatch rate (insn/cycle)
ifq_latency                  1.3659 # avg IFQ occupant latency (cycle's)
ifq_full                     0.2729 # fraction of time (cycle's) IFQ was full
RUU_count                 748574480 # cumulative RUU occupancy
RUU_fcount                 11745997 # cumulative RUU full count
ruu_occupancy                4.7266 # avg RUU occupancy (insn's)
ruu_rate                     0.9927 # avg RUU dispatch rate (insn/cycle)
ruu_latency                  4.7612 # avg RUU occupant latency (cycle's)
ruu_full                     0.0742 # fraction of time (cycle's) RUU was full
LSQ_count                 279183901 # cumulative LSQ occupancy
LSQ_fcount                  9406954 # cumulative LSQ full count
lsq_occupancy                1.7628 # avg LSQ occupancy (insn's)
lsq_rate                     0.9927 # avg LSQ dispatch rate (insn/cycle)
lsq_latency                  1.7757 # avg LSQ occupant latency (cycle's)
lsq_full                     0.0594 # fraction of time (cycle's) LSQ was full
sim_slip                 1031198668 # total number of slip cycles
avg_sim_slip                 8.6363 # the average slip between issue and retirement
bpred_bimod.lookups        34268024 # total number of bpred lookups
bpred_bimod.updates        24627128 # total number of updates
bpred_bimod.addr_hits      16287191 # total number of address-predicted hits
bpred_bimod.dir_hits       17557865 # total number of direction-predicted hits (includes addr-hits)
bpred_bimod.misses          7069263 # total number of misses
bpred_bimod.jr_hits          974981 # total number of address-predicted hits for JR's
bpred_bimod.jr_seen         1985634 # total number of JR's seen
bpred_bimod.jr_non_ras_hits.PP       970067 # total number of address-predicted hits for non-RAS JR's
bpred_bimod.jr_non_ras_seen.PP      1980720 # total number of non-RAS JR's seen
bpred_bimod.bpred_addr_rate    0.6614 # branch address-prediction rate (i.e., addr-hits/updates)
bpred_bimod.bpred_dir_rate    0.7129 # branch direction-prediction rate (i.e., all-hits/updates)
bpred_bimod.bpred_jr_rate    0.4910 # JR address-prediction rate (i.e., JR addr-hits/JRs seen)
bpred_bimod.bpred_jr_non_ras_rate.PP    0.4898 # non-RAS JR addr-pred rate (ie, non-RAS JR hits/JRs seen)
bpred_bimod.retstack_pushes      2486390 # total number of address pushed onto ret-addr stack
bpred_bimod.retstack_pops         5468 # total number of address popped off of ret-addr stack
bpred_bimod.used_ras.PP         4914 # total number of RAS predictions used
bpred_bimod.ras_hits.PP         4914 # total number of RAS hits
bpred_bimod.ras_rate.PP    1.0000 # RAS prediction rate (i.e., RAS hits/used RAS)
il1.accesses              178746631 # total number of accesses
il1.hits                  167933317 # total number of hits
il1.misses                 10813314 # total number of misses
il1.replacements           10812802 # total number of replacements
il1.writebacks                    0 # total number of writebacks
il1.invalidations                 0 # total number of invalidations
il1.miss_rate                0.0605 # miss rate (i.e., misses/ref)
il1.repl_rate                0.0605 # replacement rate (i.e., repls/ref)
il1.wb_rate                  0.0000 # writeback rate (i.e., wrbks/ref)
il1.inv_rate                 0.0000 # invalidation rate (i.e., invs/ref)
dl1.accesses               48025811 # total number of accesses
dl1.hits                   47310980 # total number of hits
dl1.misses                   714831 # total number of misses
dl1.replacements             714319 # total number of replacements
dl1.writebacks               222898 # total number of writebacks
dl1.invalidations                 0 # total number of invalidations
dl1.miss_rate                0.0149 # miss rate (i.e., misses/ref)
dl1.repl_rate                0.0149 # replacement rate (i.e., repls/ref)
dl1.wb_rate                  0.0046 # writeback rate (i.e., wrbks/ref)
dl1.inv_rate                 0.0000 # invalidation rate (i.e., invs/ref)
ul2.accesses               11751043 # total number of accesses
ul2.hits                   11270553 # total number of hits
ul2.misses                   480490 # total number of misses
ul2.replacements             476394 # total number of replacements
ul2.writebacks                55531 # total number of writebacks
ul2.invalidations                 0 # total number of invalidations
ul2.miss_rate                0.0409 # miss rate (i.e., misses/ref)
ul2.repl_rate                0.0405 # replacement rate (i.e., repls/ref)
ul2.wb_rate                  0.0047 # writeback rate (i.e., wrbks/ref)
ul2.inv_rate                 0.0000 # invalidation rate (i.e., invs/ref)
itlb.accesses             178746631 # total number of accesses
itlb.hits                 178601738 # total number of hits
itlb.misses                  144893 # total number of misses
itlb.replacements            144829 # total number of replacements
itlb.writebacks                   0 # total number of writebacks
itlb.invalidations                0 # total number of invalidations
itlb.miss_rate               0.0008 # miss rate (i.e., misses/ref)
itlb.repl_rate               0.0008 # replacement rate (i.e., repls/ref)
itlb.wb_rate                 0.0000 # writeback rate (i.e., wrbks/ref)
itlb.inv_rate                0.0000 # invalidation rate (i.e., invs/ref)
dtlb.accesses              48369683 # total number of accesses
dtlb.hits                  48365828 # total number of hits
dtlb.misses                    3855 # total number of misses
dtlb.replacements              3727 # total number of replacements
dtlb.writebacks                   0 # total number of writebacks
dtlb.invalidations                0 # total number of invalidations
dtlb.miss_rate               0.0001 # miss rate (i.e., misses/ref)
dtlb.repl_rate               0.0001 # replacement rate (i.e., repls/ref)
dtlb.wb_rate                 0.0000 # writeback rate (i.e., wrbks/ref)
dtlb.inv_rate                0.0000 # invalidation rate (i.e., invs/ref)
sim_invalid_addrs                 0 # total non-speculative bogus addresses seen (debug var)
ld_text_base             0x00400000 # program text (code) segment base
ld_text_size                2166768 # program text (code) size in bytes
ld_data_base             0x10000000 # program initialized data segment base
ld_data_size                 264644 # program init'ed `.data' and uninit'ed `.bss' size in bytes
ld_stack_base            0x7fffc000 # program stack segment base (highest address in stack)
ld_stack_size                 16384 # program initial stack size
ld_prog_entry            0x00400140 # program entry point (initial PC)
ld_environ_base          0x7fff8000 # program environment base address address
ld_target_big_endian              0 # target executable endian-ness, non-zero if big endian
mem.page_count                  806 # total number of pages allocated
mem.page_mem                  3224k # total size of memory pages allocated
mem.ptab_misses               14420 # total first level page table misses
mem.ptab_accesses        1294151286 # total page table accesses
mem.ptab_miss_rate           0.0000 # first level page table miss rate

===== cc1 bimod 32 =====
sim-outorder: SimpleScalar/PISA Tool Set version 3.0 of March, 2023.
Copyright (c) 1994-2003 by Todd M. Austin, Ph.D. and SimpleScalar, LLC.
All Rights Reserved. This version of SimpleScalar is licensed for academic
non-commercial use.  No portion of this work may be used by any commercial
entity, or for any commercial purpose, without the prior written permission
of SimpleScalar, LLC (info@simplescalar.com).

sim: command line: ../simplesim-3.0/sim-outorder -bpred bimod -bpred:bimod 32 cc1.ss ../inputs/cc1.in 

sim: simulation started @ Fri Apr 17 00:49:06 2026, options follow:

sim-outorder: This simulator implements a very detailed out-of-order issue
superscalar processor with a two-level memory system and speculative
execution support.  This simulator is a performance simulator, tracking the
latency of all pipeline operations.

# -config                     # load configuration from a file
# -dumpconfig                 # dump configuration to a file
# -h                    false # print help message    
# -v                    false # verbose operation     
# -d                    false # enable debug message  
# -i                    false # start in Dlite debugger
-seed                       1 # random number generator seed (0 for timer seed)
# -q                    false # initialize and terminate immediately
# -chkpt               <null> # restore EIO trace execution from <fname>
# -redir:sim           <null> # redirect simulator output to file (non-interactive only)
# -redir:prog          <null> # redirect simulated program output to file
-nice                       0 # simulator scheduling priority
-max:inst                   0 # maximum number of inst's to execute
-fastfwd                    0 # number of insts skipped before timing starts
# -ptrace              <null> # generate pipetrace, i.e., <fname|stdout|stderr> <range>
-fetch:ifqsize              4 # instruction fetch queue size (in insts)
-fetch:mplat                3 # extra branch mis-prediction latency
-fetch:speed                1 # speed of front-end of machine relative to execution core
-bpred                  bimod # branch predictor type {nottaken|taken|perfect|bimod|2lev|comb|opcodecomb}
-bpred:bimod     32 # bimodal predictor config (<table size>)
-bpred:opcode    2048 # opcode predictor config (<table_size>)
-bpred:2lev      1 1024 8 0 # 2-level predictor config (<l1size> <l2size> <hist_size> <xor>)
-bpred:comb      1024 # combining predictor config (<meta_table_size>)
-bpred:opcodecomb 1024 # opcode hybrid combining predictor config (<meta_table_size>)
-bpred:ras                  8 # return address stack size (0 for no return stack)
-bpred:btb       512 4 # BTB config (<num_sets> <associativity>)
# -bpred:spec_update       <null> # speculative predictors update in {ID|WB} (default non-spec)
-decode:width               4 # instruction decode B/W (insts/cycle)
-issue:width                4 # instruction issue B/W (insts/cycle)
-issue:inorder          false # run pipeline with in-order issue
-issue:wrongpath         true # issue instructions down wrong execution paths
-commit:width               4 # instruction commit B/W (insts/cycle)
-ruu:size                  16 # register update unit (RUU) size
-lsq:size                   8 # load/store queue (LSQ) size
-cache:dl1       dl1:128:32:4:l # l1 data cache config, i.e., {<config>|none}
-cache:dl1lat               1 # l1 data cache hit latency (in cycles)
-cache:dl2       ul2:1024:64:4:l # l2 data cache config, i.e., {<config>|none}
-cache:dl2lat               6 # l2 data cache hit latency (in cycles)
-cache:il1       il1:512:32:1:l # l1 inst cache config, i.e., {<config>|dl1|dl2|none}
-cache:il1lat               1 # l1 instruction cache hit latency (in cycles)
-cache:il2                dl2 # l2 instruction cache config, i.e., {<config>|dl2|none}
-cache:il2lat               6 # l2 instruction cache hit latency (in cycles)
-cache:flush            false # flush caches on system calls
-cache:icompress        false # convert 64-bit inst addresses to 32-bit inst equivalents
-mem:lat         18 2 # memory access latency (<first_chunk> <inter_chunk>)
-mem:width                  8 # memory access bus width (in bytes)
-tlb:itlb        itlb:16:4096:4:l # instruction TLB config, i.e., {<config>|none}
-tlb:dtlb        dtlb:32:4096:4:l # data TLB config, i.e., {<config>|none}
-tlb:lat                   30 # inst/data TLB miss latency (in cycles)
-res:ialu                   4 # total number of integer ALU's available
-res:imult                  1 # total number of integer multiplier/dividers available
-res:memport                2 # total number of memory system ports available (to CPU)
-res:fpalu                  4 # total number of floating point ALU's available
-res:fpmult                 1 # total number of floating point multiplier/dividers available
# -pcstat              <null> # profile stat(s) against text addr's (mult uses ok)
-bugcompat              false # operate in backward-compatible bugs mode (for testing only)

  Pipetrace range arguments are formatted as follows:

    {{@|#}<start>}:{{@|#|+}<end>}

  Both ends of the range are optional, if neither are specified, the entire
  execution is traced.  Ranges that start with a `@' designate an address
  range to be traced, those that start with an `#' designate a cycle count
  range.  All other range values represent an instruction count range.  The
  second argument, if specified with a `+', indicates a value relative
  to the first argument, e.g., 1000:+100 == 1000:1100.  Program symbols may
  be used in all contexts.

    Examples:   -ptrace FOO.trc #0:#1000
                -ptrace BAR.trc @2000:
                -ptrace BLAH.trc :1500
                -ptrace UXXE.trc :
                -ptrace FOOBAR.trc @main:+278

  Branch predictor configuration examples for 2-level predictor:
    Configurations:   N, M, W, X
      N   # entries in first level (# of shift register(s))
      W   width of shift register(s)
      M   # entries in 2nd level (# of counters, or other FSM)
      X   (yes-1/no-0) xor history and address for 2nd level index
    Sample predictors:
      GAg     : 1, W, 2^W, 0
      GAp     : 1, W, M (M > 2^W), 0
      PAg     : N, W, 2^W, 0
      PAp     : N, W, M (M == 2^(N+W)), 0
      gshare  : 1, W, 2^W, 1
  Predictor `comb' combines a bimodal and a 2-level predictor.

  The cache config parameter <config> has the following format:

    <name>:<nsets>:<bsize>:<assoc>:<repl>

    <name>   - name of the cache being defined
    <nsets>  - number of sets in the cache
    <bsize>  - block size of the cache
    <assoc>  - associativity of the cache
    <repl>   - block replacement strategy, 'l'-LRU, 'f'-FIFO, 'r'-random

    Examples:   -cache:dl1 dl1:4096:32:1:l
                -dtlb dtlb:128:4096:32:r

  Cache levels can be unified by pointing a level of the instruction cache
  hierarchy at the data cache hiearchy using the "dl1" and "dl2" cache
  configuration arguments.  Most sensible combinations are supported, e.g.,

    A unified l2 cache (il2 is pointed at dl2):
      -cache:il1 il1:128:64:1:l -cache:il2 dl2
      -cache:dl1 dl1:256:32:1:l -cache:dl2 ul2:1024:64:2:l

    Or, a fully unified cache hierarchy (il1 pointed at dl1):
      -cache:il1 dl1
      -cache:dl1 ul1:256:32:1:l -cache:dl2 ul2:1024:64:2:l



sim: ** starting performance simulation **
warning: syscall: sigvec ignored
warning: syscall: sigvec ignored
 label_rtx emit_jump expand_label expand_goto expand_goto_internal expand_fixup fixup_gotos expand_asm expand_asm_operands expand_expr_stmt clear_last_expr expand_start_stmt_expr expand_end_stmt_expr expand_start_cond expand_end_cond expand_start_else expand_end_else expand_start_loop expand_start_loop_continue_elsewhere expand_loop_continue_here expand_end_loop expand_continue_loop expand_exit_loop expand_exit_loop_if_false expand_exit_something expand_null_return expand_null_return_1 expand_return drop_through_at_end_p tail_recursion_args expand_start_bindings use_variable use_variable_after expand_end_bindings expand_decl expand_decl_init expand_anon_union_decl expand_cleanups fixup_cleanups move_cleanups_up expand_start_case expand_start_case_dummy expand_end_case_dummy pushcase pushcase_range check_for_full_enumeration_handling expand_end_case do_jump_if_equal group_case_nodes balance_case_nodes node_has_low_bound node_has_high_bound node_is_bounded emit_jump_if_reachable emit_case_nodes get_frame_size assign_stack_local put_var_into_stack fixup_var_refs fixup_var_refs_insns fixup_var_refs_1 fixup_memory_subreg walk_fixup_memory_subreg fixup_stack_1 optimize_bit_field max_parm_reg_num get_first_nonparm_insn parm_stack_loc assign_parms get_structure_value_addr uninitialized_vars_warning setjmp_protect expand_function_start expand_function_end
time in parse: 0.000000
time in integration: 0.000000
time in jump: 0.000000
time in cse: 0.000000
time in loop: 0.000000
time in cse2: 0.000000
time in flow: 0.000000
time in combine: 0.000000
time in sched: 0.000000
time in local-alloc: 0.000000
time in global-alloc: 0.000000
time in sched2: 0.000000
time in dbranch: 0.000000
time in shorten-branch: 0.000000
time in stack-reg: 0.000000
time in final: 0.000000
time in varconst: 0.000000
time in symout: 0.000000
time in dump: 0.000000

sim: ** simulation statistics **
sim_num_insn              119403444 # total number of instructions committed
sim_num_refs               44167676 # total number of loads and stores committed
sim_num_loads              27853167 # total number of loads committed
sim_num_stores         16314509.0000 # total number of stores committed
sim_num_branches           24627128 # total number of branches committed
sim_elapsed_time                 32 # total simulation time in seconds
sim_inst_rate          3731357.6250 # simulation speed (in insts/sec)
sim_total_insn            153965762 # total number of instructions executed
sim_total_refs             56512614 # total number of loads and stores executed
sim_total_loads            37437749 # total number of loads executed
sim_total_stores       19074865.0000 # total number of stores executed
sim_total_branches         31548751 # total number of branches executed
sim_cycle                 153878412 # total simulation time in cycles
sim_IPC                      0.7760 # instructions per cycle
sim_CPI                      1.2887 # cycles per instruction
sim_exec_BW                  1.0006 # total instructions (mis-spec + committed) per cycle
sim_IPB                      4.8485 # instruction per branch
IFQ_count                 211773275 # cumulative IFQ occupancy
IFQ_fcount                 42914196 # cumulative IFQ full count
ifq_occupancy                1.3762 # avg IFQ occupancy (insn's)
ifq_rate                     1.0006 # avg IFQ dispatch rate (insn/cycle)
ifq_latency                  1.3755 # avg IFQ occupant latency (cycle's)
ifq_full                     0.2789 # fraction of time (cycle's) IFQ was full
RUU_count                 744252960 # cumulative RUU occupancy
RUU_fcount                 12773669 # cumulative RUU full count
ruu_occupancy                4.8366 # avg RUU occupancy (insn's)
ruu_rate                     1.0006 # avg RUU dispatch rate (insn/cycle)
ruu_latency                  4.8339 # avg RUU occupant latency (cycle's)
ruu_full                     0.0830 # fraction of time (cycle's) RUU was full
LSQ_count                 275540185 # cumulative LSQ occupancy
LSQ_fcount                  9221778 # cumulative LSQ full count
lsq_occupancy                1.7906 # avg LSQ occupancy (insn's)
lsq_rate                     1.0006 # avg LSQ dispatch rate (insn/cycle)
lsq_latency                  1.7896 # avg LSQ occupant latency (cycle's)
lsq_full                     0.0599 # fraction of time (cycle's) LSQ was full
sim_slip                 1039435265 # total number of slip cycles
avg_sim_slip                 8.7052 # the average slip between issue and retirement
bpred_bimod.lookups        33505073 # total number of bpred lookups
bpred_bimod.updates        24627128 # total number of updates
bpred_bimod.addr_hits      17032069 # total number of address-predicted hits
bpred_bimod.dir_hits       18304420 # total number of direction-predicted hits (includes addr-hits)
bpred_bimod.misses          6322708 # total number of misses
bpred_bimod.jr_hits          974981 # total number of address-predicted hits for JR's
bpred_bimod.jr_seen         1985634 # total number of JR's seen
bpred_bimod.jr_non_ras_hits.PP       970067 # total number of address-predicted hits for non-RAS JR's
bpred_bimod.jr_non_ras_seen.PP      1980720 # total number of non-RAS JR's seen
bpred_bimod.bpred_addr_rate    0.6916 # branch address-prediction rate (i.e., addr-hits/updates)
bpred_bimod.bpred_dir_rate    0.7433 # branch direction-prediction rate (i.e., all-hits/updates)
bpred_bimod.bpred_jr_rate    0.4910 # JR address-prediction rate (i.e., JR addr-hits/JRs seen)
bpred_bimod.bpred_jr_non_ras_rate.PP    0.4898 # non-RAS JR addr-pred rate (ie, non-RAS JR hits/JRs seen)
bpred_bimod.retstack_pushes      2372854 # total number of address pushed onto ret-addr stack
bpred_bimod.retstack_pops         5814 # total number of address popped off of ret-addr stack
bpred_bimod.used_ras.PP         4914 # total number of RAS predictions used
bpred_bimod.ras_hits.PP         4914 # total number of RAS hits
bpred_bimod.ras_rate.PP    1.0000 # RAS prediction rate (i.e., RAS hits/used RAS)
il1.accesses              174483072 # total number of accesses
il1.hits                  163862954 # total number of hits
il1.misses                 10620118 # total number of misses
il1.replacements           10619606 # total number of replacements
il1.writebacks                    0 # total number of writebacks
il1.invalidations                 0 # total number of invalidations
il1.miss_rate                0.0609 # miss rate (i.e., misses/ref)
il1.repl_rate                0.0609 # replacement rate (i.e., repls/ref)
il1.wb_rate                  0.0000 # writeback rate (i.e., wrbks/ref)
il1.inv_rate                 0.0000 # invalidation rate (i.e., invs/ref)
dl1.accesses               47518509 # total number of accesses
dl1.hits                   46801310 # total number of hits
dl1.misses                   717199 # total number of misses
dl1.replacements             716687 # total number of replacements
dl1.writebacks               222838 # total number of writebacks
dl1.invalidations                 0 # total number of invalidations
dl1.miss_rate                0.0151 # miss rate (i.e., misses/ref)
dl1.repl_rate                0.0151 # replacement rate (i.e., repls/ref)
dl1.wb_rate                  0.0047 # writeback rate (i.e., wrbks/ref)
dl1.inv_rate                 0.0000 # invalidation rate (i.e., invs/ref)
ul2.accesses               11560155 # total number of accesses
ul2.hits                   11081641 # total number of hits
ul2.misses                   478514 # total number of misses
ul2.replacements             474418 # total number of replacements
ul2.writebacks                55550 # total number of writebacks
ul2.invalidations                 0 # total number of invalidations
ul2.miss_rate                0.0414 # miss rate (i.e., misses/ref)
ul2.repl_rate                0.0410 # replacement rate (i.e., repls/ref)
ul2.wb_rate                  0.0048 # writeback rate (i.e., wrbks/ref)
ul2.inv_rate                 0.0000 # invalidation rate (i.e., invs/ref)
itlb.accesses             174483072 # total number of accesses
itlb.hits                 174339181 # total number of hits
itlb.misses                  143891 # total number of misses
itlb.replacements            143827 # total number of replacements
itlb.writebacks                   0 # total number of writebacks
itlb.invalidations                0 # total number of invalidations
itlb.miss_rate               0.0008 # miss rate (i.e., misses/ref)
itlb.repl_rate               0.0008 # replacement rate (i.e., repls/ref)
itlb.wb_rate                 0.0000 # writeback rate (i.e., wrbks/ref)
itlb.inv_rate                0.0000 # invalidation rate (i.e., invs/ref)
dtlb.accesses              47851074 # total number of accesses
dtlb.hits                  47847255 # total number of hits
dtlb.misses                    3819 # total number of misses
dtlb.replacements              3691 # total number of replacements
dtlb.writebacks                   0 # total number of writebacks
dtlb.invalidations                0 # total number of invalidations
dtlb.miss_rate               0.0001 # miss rate (i.e., misses/ref)
dtlb.repl_rate               0.0001 # replacement rate (i.e., repls/ref)
dtlb.wb_rate                 0.0000 # writeback rate (i.e., wrbks/ref)
dtlb.inv_rate                0.0000 # invalidation rate (i.e., invs/ref)
sim_invalid_addrs                 0 # total non-speculative bogus addresses seen (debug var)
ld_text_base             0x00400000 # program text (code) segment base
ld_text_size                2166768 # program text (code) size in bytes
ld_data_base             0x10000000 # program initialized data segment base
ld_data_size                 264644 # program init'ed `.data' and uninit'ed `.bss' size in bytes
ld_stack_base            0x7fffc000 # program stack segment base (highest address in stack)
ld_stack_size                 16384 # program initial stack size
ld_prog_entry            0x00400140 # program entry point (initial PC)
ld_environ_base          0x7fff8000 # program environment base address address
ld_target_big_endian              0 # target executable endian-ness, non-zero if big endian
mem.page_count                  806 # total number of pages allocated
mem.page_mem                  3224k # total size of memory pages allocated
mem.ptab_misses               16636 # total first level page table misses
mem.ptab_accesses        1271953286 # total page table accesses
mem.ptab_miss_rate           0.0000 # first level page table miss rate

===== cc1 bimod 64 =====
sim-outorder: SimpleScalar/PISA Tool Set version 3.0 of March, 2023.
Copyright (c) 1994-2003 by Todd M. Austin, Ph.D. and SimpleScalar, LLC.
All Rights Reserved. This version of SimpleScalar is licensed for academic
non-commercial use.  No portion of this work may be used by any commercial
entity, or for any commercial purpose, without the prior written permission
of SimpleScalar, LLC (info@simplescalar.com).

sim: command line: ../simplesim-3.0/sim-outorder -bpred bimod -bpred:bimod 64 cc1.ss ../inputs/cc1.in 

sim: simulation started @ Fri Apr 17 00:49:38 2026, options follow:

sim-outorder: This simulator implements a very detailed out-of-order issue
superscalar processor with a two-level memory system and speculative
execution support.  This simulator is a performance simulator, tracking the
latency of all pipeline operations.

# -config                     # load configuration from a file
# -dumpconfig                 # dump configuration to a file
# -h                    false # print help message    
# -v                    false # verbose operation     
# -d                    false # enable debug message  
# -i                    false # start in Dlite debugger
-seed                       1 # random number generator seed (0 for timer seed)
# -q                    false # initialize and terminate immediately
# -chkpt               <null> # restore EIO trace execution from <fname>
# -redir:sim           <null> # redirect simulator output to file (non-interactive only)
# -redir:prog          <null> # redirect simulated program output to file
-nice                       0 # simulator scheduling priority
-max:inst                   0 # maximum number of inst's to execute
-fastfwd                    0 # number of insts skipped before timing starts
# -ptrace              <null> # generate pipetrace, i.e., <fname|stdout|stderr> <range>
-fetch:ifqsize              4 # instruction fetch queue size (in insts)
-fetch:mplat                3 # extra branch mis-prediction latency
-fetch:speed                1 # speed of front-end of machine relative to execution core
-bpred                  bimod # branch predictor type {nottaken|taken|perfect|bimod|2lev|comb|opcodecomb}
-bpred:bimod     64 # bimodal predictor config (<table size>)
-bpred:opcode    2048 # opcode predictor config (<table_size>)
-bpred:2lev      1 1024 8 0 # 2-level predictor config (<l1size> <l2size> <hist_size> <xor>)
-bpred:comb      1024 # combining predictor config (<meta_table_size>)
-bpred:opcodecomb 1024 # opcode hybrid combining predictor config (<meta_table_size>)
-bpred:ras                  8 # return address stack size (0 for no return stack)
-bpred:btb       512 4 # BTB config (<num_sets> <associativity>)
# -bpred:spec_update       <null> # speculative predictors update in {ID|WB} (default non-spec)
-decode:width               4 # instruction decode B/W (insts/cycle)
-issue:width                4 # instruction issue B/W (insts/cycle)
-issue:inorder          false # run pipeline with in-order issue
-issue:wrongpath         true # issue instructions down wrong execution paths
-commit:width               4 # instruction commit B/W (insts/cycle)
-ruu:size                  16 # register update unit (RUU) size
-lsq:size                   8 # load/store queue (LSQ) size
-cache:dl1       dl1:128:32:4:l # l1 data cache config, i.e., {<config>|none}
-cache:dl1lat               1 # l1 data cache hit latency (in cycles)
-cache:dl2       ul2:1024:64:4:l # l2 data cache config, i.e., {<config>|none}
-cache:dl2lat               6 # l2 data cache hit latency (in cycles)
-cache:il1       il1:512:32:1:l # l1 inst cache config, i.e., {<config>|dl1|dl2|none}
-cache:il1lat               1 # l1 instruction cache hit latency (in cycles)
-cache:il2                dl2 # l2 instruction cache config, i.e., {<config>|dl2|none}
-cache:il2lat               6 # l2 instruction cache hit latency (in cycles)
-cache:flush            false # flush caches on system calls
-cache:icompress        false # convert 64-bit inst addresses to 32-bit inst equivalents
-mem:lat         18 2 # memory access latency (<first_chunk> <inter_chunk>)
-mem:width                  8 # memory access bus width (in bytes)
-tlb:itlb        itlb:16:4096:4:l # instruction TLB config, i.e., {<config>|none}
-tlb:dtlb        dtlb:32:4096:4:l # data TLB config, i.e., {<config>|none}
-tlb:lat                   30 # inst/data TLB miss latency (in cycles)
-res:ialu                   4 # total number of integer ALU's available
-res:imult                  1 # total number of integer multiplier/dividers available
-res:memport                2 # total number of memory system ports available (to CPU)
-res:fpalu                  4 # total number of floating point ALU's available
-res:fpmult                 1 # total number of floating point multiplier/dividers available
# -pcstat              <null> # profile stat(s) against text addr's (mult uses ok)
-bugcompat              false # operate in backward-compatible bugs mode (for testing only)

  Pipetrace range arguments are formatted as follows:

    {{@|#}<start>}:{{@|#|+}<end>}

  Both ends of the range are optional, if neither are specified, the entire
  execution is traced.  Ranges that start with a `@' designate an address
  range to be traced, those that start with an `#' designate a cycle count
  range.  All other range values represent an instruction count range.  The
  second argument, if specified with a `+', indicates a value relative
  to the first argument, e.g., 1000:+100 == 1000:1100.  Program symbols may
  be used in all contexts.

    Examples:   -ptrace FOO.trc #0:#1000
                -ptrace BAR.trc @2000:
                -ptrace BLAH.trc :1500
                -ptrace UXXE.trc :
                -ptrace FOOBAR.trc @main:+278

  Branch predictor configuration examples for 2-level predictor:
    Configurations:   N, M, W, X
      N   # entries in first level (# of shift register(s))
      W   width of shift register(s)
      M   # entries in 2nd level (# of counters, or other FSM)
      X   (yes-1/no-0) xor history and address for 2nd level index
    Sample predictors:
      GAg     : 1, W, 2^W, 0
      GAp     : 1, W, M (M > 2^W), 0
      PAg     : N, W, 2^W, 0
      PAp     : N, W, M (M == 2^(N+W)), 0
      gshare  : 1, W, 2^W, 1
  Predictor `comb' combines a bimodal and a 2-level predictor.

  The cache config parameter <config> has the following format:

    <name>:<nsets>:<bsize>:<assoc>:<repl>

    <name>   - name of the cache being defined
    <nsets>  - number of sets in the cache
    <bsize>  - block size of the cache
    <assoc>  - associativity of the cache
    <repl>   - block replacement strategy, 'l'-LRU, 'f'-FIFO, 'r'-random

    Examples:   -cache:dl1 dl1:4096:32:1:l
                -dtlb dtlb:128:4096:32:r

  Cache levels can be unified by pointing a level of the instruction cache
  hierarchy at the data cache hiearchy using the "dl1" and "dl2" cache
  configuration arguments.  Most sensible combinations are supported, e.g.,

    A unified l2 cache (il2 is pointed at dl2):
      -cache:il1 il1:128:64:1:l -cache:il2 dl2
      -cache:dl1 dl1:256:32:1:l -cache:dl2 ul2:1024:64:2:l

    Or, a fully unified cache hierarchy (il1 pointed at dl1):
      -cache:il1 dl1
      -cache:dl1 ul1:256:32:1:l -cache:dl2 ul2:1024:64:2:l



sim: ** starting performance simulation **
warning: syscall: sigvec ignored
warning: syscall: sigvec ignored
 label_rtx emit_jump expand_label expand_goto expand_goto_internal expand_fixup fixup_gotos expand_asm expand_asm_operands expand_expr_stmt clear_last_expr expand_start_stmt_expr expand_end_stmt_expr expand_start_cond expand_end_cond expand_start_else expand_end_else expand_start_loop expand_start_loop_continue_elsewhere expand_loop_continue_here expand_end_loop expand_continue_loop expand_exit_loop expand_exit_loop_if_false expand_exit_something expand_null_return expand_null_return_1 expand_return drop_through_at_end_p tail_recursion_args expand_start_bindings use_variable use_variable_after expand_end_bindings expand_decl expand_decl_init expand_anon_union_decl expand_cleanups fixup_cleanups move_cleanups_up expand_start_case expand_start_case_dummy expand_end_case_dummy pushcase pushcase_range check_for_full_enumeration_handling expand_end_case do_jump_if_equal group_case_nodes balance_case_nodes node_has_low_bound node_has_high_bound node_is_bounded emit_jump_if_reachable emit_case_nodes get_frame_size assign_stack_local put_var_into_stack fixup_var_refs fixup_var_refs_insns fixup_var_refs_1 fixup_memory_subreg walk_fixup_memory_subreg fixup_stack_1 optimize_bit_field max_parm_reg_num get_first_nonparm_insn parm_stack_loc assign_parms get_structure_value_addr uninitialized_vars_warning setjmp_protect expand_function_start expand_function_end
time in parse: 0.000000
time in integration: 0.000000
time in jump: 0.000000
time in cse: 0.000000
time in loop: 0.000000
time in cse2: 0.000000
time in flow: 0.000000
time in combine: 0.000000
time in sched: 0.000000
time in local-alloc: 0.000000
time in global-alloc: 0.000000
time in sched2: 0.000000
time in dbranch: 0.000000
time in shorten-branch: 0.000000
time in stack-reg: 0.000000
time in final: 0.000000
time in varconst: 0.000000
time in symout: 0.000000
time in dump: 0.000000

sim: ** simulation statistics **
sim_num_insn              119403444 # total number of instructions committed
sim_num_refs               44167676 # total number of loads and stores committed
sim_num_loads              27853167 # total number of loads committed
sim_num_stores         16314509.0000 # total number of stores committed
sim_num_branches           24627128 # total number of branches committed
sim_elapsed_time                 32 # total simulation time in seconds
sim_inst_rate          3731357.6250 # simulation speed (in insts/sec)
sim_total_insn            151183747 # total number of instructions executed
sim_total_refs             55552138 # total number of loads and stores executed
sim_total_loads            36814031 # total number of loads executed
sim_total_stores       18738107.0000 # total number of stores executed
sim_total_branches         30976586 # total number of branches executed
sim_cycle                 149603172 # total simulation time in cycles
sim_IPC                      0.7981 # instructions per cycle
sim_CPI                      1.2529 # cycles per instruction
sim_exec_BW                  1.0106 # total instructions (mis-spec + committed) per cycle
sim_IPB                      4.8485 # instruction per branch
IFQ_count                 209805591 # cumulative IFQ occupancy
IFQ_fcount                 42699926 # cumulative IFQ full count
ifq_occupancy                1.4024 # avg IFQ occupancy (insn's)
ifq_rate                     1.0106 # avg IFQ dispatch rate (insn/cycle)
ifq_latency                  1.3878 # avg IFQ occupant latency (cycle's)
ifq_full                     0.2854 # fraction of time (cycle's) IFQ was full
RUU_count                 744631504 # cumulative RUU occupancy
RUU_fcount                 13680093 # cumulative RUU full count
ruu_occupancy                4.9774 # avg RUU occupancy (insn's)
ruu_rate                     1.0106 # avg RUU dispatch rate (insn/cycle)
ruu_latency                  4.9253 # avg RUU occupant latency (cycle's)
ruu_full                     0.0914 # fraction of time (cycle's) RUU was full
LSQ_count                 275269000 # cumulative LSQ occupancy
LSQ_fcount                  9167889 # cumulative LSQ full count
lsq_occupancy                1.8400 # avg LSQ occupancy (insn's)
lsq_rate                     1.0106 # avg LSQ dispatch rate (insn/cycle)
lsq_latency                  1.8208 # avg LSQ occupant latency (cycle's)
lsq_full                     0.0613 # fraction of time (cycle's) LSQ was full
sim_slip                 1047758777 # total number of slip cycles
avg_sim_slip                 8.7749 # the average slip between issue and retirement
bpred_bimod.lookups        32866417 # total number of bpred lookups
bpred_bimod.updates        24627128 # total number of updates
bpred_bimod.addr_hits      17808357 # total number of address-predicted hits
bpred_bimod.dir_hits       19077226 # total number of direction-predicted hits (includes addr-hits)
bpred_bimod.misses          5549902 # total number of misses
bpred_bimod.jr_hits          974976 # total number of address-predicted hits for JR's
bpred_bimod.jr_seen         1985634 # total number of JR's seen
bpred_bimod.jr_non_ras_hits.PP       970062 # total number of address-predicted hits for non-RAS JR's
bpred_bimod.jr_non_ras_seen.PP      1980720 # total number of non-RAS JR's seen
bpred_bimod.bpred_addr_rate    0.7231 # branch address-prediction rate (i.e., addr-hits/updates)
bpred_bimod.bpred_dir_rate    0.7746 # branch direction-prediction rate (i.e., all-hits/updates)
bpred_bimod.bpred_jr_rate    0.4910 # JR address-prediction rate (i.e., JR addr-hits/JRs seen)
bpred_bimod.bpred_jr_non_ras_rate.PP    0.4898 # non-RAS JR addr-pred rate (ie, non-RAS JR hits/JRs seen)
bpred_bimod.retstack_pushes      2257322 # total number of address pushed onto ret-addr stack
bpred_bimod.retstack_pops         5523 # total number of address popped off of ret-addr stack
bpred_bimod.used_ras.PP         4914 # total number of RAS predictions used
bpred_bimod.ras_hits.PP         4914 # total number of RAS hits
bpred_bimod.ras_rate.PP    1.0000 # RAS prediction rate (i.e., RAS hits/used RAS)
il1.accesses              171018637 # total number of accesses
il1.hits                  160552246 # total number of hits
il1.misses                 10466391 # total number of misses
il1.replacements           10465879 # total number of replacements
il1.writebacks                    0 # total number of writebacks
il1.invalidations                 0 # total number of invalidations
il1.miss_rate                0.0612 # miss rate (i.e., misses/ref)
il1.repl_rate                0.0612 # replacement rate (i.e., repls/ref)
il1.wb_rate                  0.0000 # writeback rate (i.e., wrbks/ref)
il1.inv_rate                 0.0000 # invalidation rate (i.e., invs/ref)
dl1.accesses               47381844 # total number of accesses
dl1.hits                   46666974 # total number of hits
dl1.misses                   714870 # total number of misses
dl1.replacements             714358 # total number of replacements
dl1.writebacks               222557 # total number of writebacks
dl1.invalidations                 0 # total number of invalidations
dl1.miss_rate                0.0151 # miss rate (i.e., misses/ref)
dl1.repl_rate                0.0151 # replacement rate (i.e., repls/ref)
dl1.wb_rate                  0.0047 # writeback rate (i.e., wrbks/ref)
dl1.inv_rate                 0.0000 # invalidation rate (i.e., invs/ref)
ul2.accesses               11403818 # total number of accesses
ul2.hits                   10926061 # total number of hits
ul2.misses                   477757 # total number of misses
ul2.replacements             473661 # total number of replacements
ul2.writebacks                55398 # total number of writebacks
ul2.invalidations                 0 # total number of invalidations
ul2.miss_rate                0.0419 # miss rate (i.e., misses/ref)
ul2.repl_rate                0.0415 # replacement rate (i.e., repls/ref)
ul2.wb_rate                  0.0049 # writeback rate (i.e., wrbks/ref)
ul2.inv_rate                 0.0000 # invalidation rate (i.e., invs/ref)
itlb.accesses             171018637 # total number of accesses
itlb.hits                 170878604 # total number of hits
itlb.misses                  140033 # total number of misses
itlb.replacements            139969 # total number of replacements
itlb.writebacks                   0 # total number of writebacks
itlb.invalidations                0 # total number of invalidations
itlb.miss_rate               0.0008 # miss rate (i.e., misses/ref)
itlb.repl_rate               0.0008 # replacement rate (i.e., repls/ref)
itlb.wb_rate                 0.0000 # writeback rate (i.e., wrbks/ref)
itlb.inv_rate                0.0000 # invalidation rate (i.e., invs/ref)
dtlb.accesses              47750697 # total number of accesses
dtlb.hits                  47746874 # total number of hits
dtlb.misses                    3823 # total number of misses
dtlb.replacements              3695 # total number of replacements
dtlb.writebacks                   0 # total number of writebacks
dtlb.invalidations                0 # total number of invalidations
dtlb.miss_rate               0.0001 # miss rate (i.e., misses/ref)
dtlb.repl_rate               0.0001 # replacement rate (i.e., repls/ref)
dtlb.wb_rate                 0.0000 # writeback rate (i.e., wrbks/ref)
dtlb.inv_rate                0.0000 # invalidation rate (i.e., invs/ref)
sim_invalid_addrs                 0 # total non-speculative bogus addresses seen (debug var)
ld_text_base             0x00400000 # program text (code) segment base
ld_text_size                2166768 # program text (code) size in bytes
ld_data_base             0x10000000 # program initialized data segment base
ld_data_size                 264644 # program init'ed `.data' and uninit'ed `.bss' size in bytes
ld_stack_base            0x7fffc000 # program stack segment base (highest address in stack)
ld_stack_size                 16384 # program initial stack size
ld_prog_entry            0x00400140 # program entry point (initial PC)
ld_environ_base          0x7fff8000 # program environment base address address
ld_target_big_endian              0 # target executable endian-ness, non-zero if big endian
mem.page_count                  806 # total number of pages allocated
mem.page_mem                  3224k # total size of memory pages allocated
mem.ptab_misses               11214 # total first level page table misses
mem.ptab_accesses        1254283104 # total page table accesses
mem.ptab_miss_rate           0.0000 # first level page table miss rate

===== cc1 bimod 128 =====
sim-outorder: SimpleScalar/PISA Tool Set version 3.0 of March, 2023.
Copyright (c) 1994-2003 by Todd M. Austin, Ph.D. and SimpleScalar, LLC.
All Rights Reserved. This version of SimpleScalar is licensed for academic
non-commercial use.  No portion of this work may be used by any commercial
entity, or for any commercial purpose, without the prior written permission
of SimpleScalar, LLC (info@simplescalar.com).

sim: command line: ../simplesim-3.0/sim-outorder -bpred bimod -bpred:bimod 128 cc1.ss ../inputs/cc1.in 

sim: simulation started @ Fri Apr 17 00:50:10 2026, options follow:

sim-outorder: This simulator implements a very detailed out-of-order issue
superscalar processor with a two-level memory system and speculative
execution support.  This simulator is a performance simulator, tracking the
latency of all pipeline operations.

# -config                     # load configuration from a file
# -dumpconfig                 # dump configuration to a file
# -h                    false # print help message    
# -v                    false # verbose operation     
# -d                    false # enable debug message  
# -i                    false # start in Dlite debugger
-seed                       1 # random number generator seed (0 for timer seed)
# -q                    false # initialize and terminate immediately
# -chkpt               <null> # restore EIO trace execution from <fname>
# -redir:sim           <null> # redirect simulator output to file (non-interactive only)
# -redir:prog          <null> # redirect simulated program output to file
-nice                       0 # simulator scheduling priority
-max:inst                   0 # maximum number of inst's to execute
-fastfwd                    0 # number of insts skipped before timing starts
# -ptrace              <null> # generate pipetrace, i.e., <fname|stdout|stderr> <range>
-fetch:ifqsize              4 # instruction fetch queue size (in insts)
-fetch:mplat                3 # extra branch mis-prediction latency
-fetch:speed                1 # speed of front-end of machine relative to execution core
-bpred                  bimod # branch predictor type {nottaken|taken|perfect|bimod|2lev|comb|opcodecomb}
-bpred:bimod     128 # bimodal predictor config (<table size>)
-bpred:opcode    2048 # opcode predictor config (<table_size>)
-bpred:2lev      1 1024 8 0 # 2-level predictor config (<l1size> <l2size> <hist_size> <xor>)
-bpred:comb      1024 # combining predictor config (<meta_table_size>)
-bpred:opcodecomb 1024 # opcode hybrid combining predictor config (<meta_table_size>)
-bpred:ras                  8 # return address stack size (0 for no return stack)
-bpred:btb       512 4 # BTB config (<num_sets> <associativity>)
# -bpred:spec_update       <null> # speculative predictors update in {ID|WB} (default non-spec)
-decode:width               4 # instruction decode B/W (insts/cycle)
-issue:width                4 # instruction issue B/W (insts/cycle)
-issue:inorder          false # run pipeline with in-order issue
-issue:wrongpath         true # issue instructions down wrong execution paths
-commit:width               4 # instruction commit B/W (insts/cycle)
-ruu:size                  16 # register update unit (RUU) size
-lsq:size                   8 # load/store queue (LSQ) size
-cache:dl1       dl1:128:32:4:l # l1 data cache config, i.e., {<config>|none}
-cache:dl1lat               1 # l1 data cache hit latency (in cycles)
-cache:dl2       ul2:1024:64:4:l # l2 data cache config, i.e., {<config>|none}
-cache:dl2lat               6 # l2 data cache hit latency (in cycles)
-cache:il1       il1:512:32:1:l # l1 inst cache config, i.e., {<config>|dl1|dl2|none}
-cache:il1lat               1 # l1 instruction cache hit latency (in cycles)
-cache:il2                dl2 # l2 instruction cache config, i.e., {<config>|dl2|none}
-cache:il2lat               6 # l2 instruction cache hit latency (in cycles)
-cache:flush            false # flush caches on system calls
-cache:icompress        false # convert 64-bit inst addresses to 32-bit inst equivalents
-mem:lat         18 2 # memory access latency (<first_chunk> <inter_chunk>)
-mem:width                  8 # memory access bus width (in bytes)
-tlb:itlb        itlb:16:4096:4:l # instruction TLB config, i.e., {<config>|none}
-tlb:dtlb        dtlb:32:4096:4:l # data TLB config, i.e., {<config>|none}
-tlb:lat                   30 # inst/data TLB miss latency (in cycles)
-res:ialu                   4 # total number of integer ALU's available
-res:imult                  1 # total number of integer multiplier/dividers available
-res:memport                2 # total number of memory system ports available (to CPU)
-res:fpalu                  4 # total number of floating point ALU's available
-res:fpmult                 1 # total number of floating point multiplier/dividers available
# -pcstat              <null> # profile stat(s) against text addr's (mult uses ok)
-bugcompat              false # operate in backward-compatible bugs mode (for testing only)

  Pipetrace range arguments are formatted as follows:

    {{@|#}<start>}:{{@|#|+}<end>}

  Both ends of the range are optional, if neither are specified, the entire
  execution is traced.  Ranges that start with a `@' designate an address
  range to be traced, those that start with an `#' designate a cycle count
  range.  All other range values represent an instruction count range.  The
  second argument, if specified with a `+', indicates a value relative
  to the first argument, e.g., 1000:+100 == 1000:1100.  Program symbols may
  be used in all contexts.

    Examples:   -ptrace FOO.trc #0:#1000
                -ptrace BAR.trc @2000:
                -ptrace BLAH.trc :1500
                -ptrace UXXE.trc :
                -ptrace FOOBAR.trc @main:+278

  Branch predictor configuration examples for 2-level predictor:
    Configurations:   N, M, W, X
      N   # entries in first level (# of shift register(s))
      W   width of shift register(s)
      M   # entries in 2nd level (# of counters, or other FSM)
      X   (yes-1/no-0) xor history and address for 2nd level index
    Sample predictors:
      GAg     : 1, W, 2^W, 0
      GAp     : 1, W, M (M > 2^W), 0
      PAg     : N, W, 2^W, 0
      PAp     : N, W, M (M == 2^(N+W)), 0
      gshare  : 1, W, 2^W, 1
  Predictor `comb' combines a bimodal and a 2-level predictor.

  The cache config parameter <config> has the following format:

    <name>:<nsets>:<bsize>:<assoc>:<repl>

    <name>   - name of the cache being defined
    <nsets>  - number of sets in the cache
    <bsize>  - block size of the cache
    <assoc>  - associativity of the cache
    <repl>   - block replacement strategy, 'l'-LRU, 'f'-FIFO, 'r'-random

    Examples:   -cache:dl1 dl1:4096:32:1:l
                -dtlb dtlb:128:4096:32:r

  Cache levels can be unified by pointing a level of the instruction cache
  hierarchy at the data cache hiearchy using the "dl1" and "dl2" cache
  configuration arguments.  Most sensible combinations are supported, e.g.,

    A unified l2 cache (il2 is pointed at dl2):
      -cache:il1 il1:128:64:1:l -cache:il2 dl2
      -cache:dl1 dl1:256:32:1:l -cache:dl2 ul2:1024:64:2:l

    Or, a fully unified cache hierarchy (il1 pointed at dl1):
      -cache:il1 dl1
      -cache:dl1 ul1:256:32:1:l -cache:dl2 ul2:1024:64:2:l



sim: ** starting performance simulation **
warning: syscall: sigvec ignored
warning: syscall: sigvec ignored
[...]
dtlb.misses                    3852 # total number of misses
dtlb.replacements              3724 # total number of replacements
dtlb.writebacks                   0 # total number of writebacks
dtlb.invalidations                0 # total number of invalidations
dtlb.miss_rate               0.0001 # miss rate (i.e., misses/ref)
dtlb.repl_rate               0.0001 # replacement rate (i.e., repls/ref)
dtlb.wb_rate                 0.0000 # writeback rate (i.e., wrbks/ref)
dtlb.inv_rate                0.0000 # invalidation rate (i.e., invs/ref)
sim_invalid_addrs                 0 # total non-speculative bogus addresses seen (debug var)
ld_text_base             0x00400000 # program text (code) segment base
ld_text_size                2166768 # program text (code) size in bytes
ld_data_base             0x10000000 # program initialized data segment base
ld_data_size                 264644 # program init'ed `.data' and uninit'ed `.bss' size in bytes
ld_stack_base            0x7fffc000 # program stack segment base (highest address in stack)
ld_stack_size                 16384 # program initial stack size
ld_prog_entry            0x00400140 # program entry point (initial PC)
ld_environ_base          0x7fff8000 # program environment base address address
ld_target_big_endian              0 # target executable endian-ness, non-zero if big endian
mem.page_count                  806 # total number of pages allocated
mem.page_mem                  3224k # total size of memory pages allocated
mem.ptab_misses               15274 # total first level page table misses
mem.ptab_accesses        1248258990 # total page table accesses
mem.ptab_miss_rate           0.0000 # first level page table miss rate

===== cc1 opcodecomb 32768 =====
sim-outorder: SimpleScalar/PISA Tool Set version 3.0 of March, 2023.
Copyright (c) 1994-2003 by Todd M. Austin, Ph.D. and SimpleScalar, LLC.
All Rights Reserved. This version of SimpleScalar is licensed for academic
non-commercial use.  No portion of this work may be used by any commercial
entity, or for any commercial purpose, without the prior written permission
of SimpleScalar, LLC (info@simplescalar.com).

sim: command line: ../simplesim-3.0/sim-outorder -bpred opcodecomb -bpred:opcodecomb 32768 cc1.ss ../inputs/cc1.in 

sim: simulation started @ Fri Apr 17 01:12:58 2026, options follow:

sim-outorder: This simulator implements a very detailed out-of-order issue
superscalar processor with a two-level memory system and speculative
execution support.  This simulator is a performance simulator, tracking the
latency of all pipeline operations.

# -config                     # load configuration from a file
# -dumpconfig                 # dump configuration to a file
# -h                    false # print help message    
# -v                    false # verbose operation     
# -d                    false # enable debug message  
# -i                    false # start in Dlite debugger
-seed                       1 # random number generator seed (0 for timer seed)
# -q                    false # initialize and terminate immediately
# -chkpt               <null> # restore EIO trace execution from <fname>
# -redir:sim           <null> # redirect simulator output to file (non-interactive only)
# -redir:prog          <null> # redirect simulated program output to file
-nice                       0 # simulator scheduling priority
-max:inst                   0 # maximum number of inst's to execute
-fastfwd                    0 # number of insts skipped before timing starts
# -ptrace              <null> # generate pipetrace, i.e., <fname|stdout|stderr> <range>
-fetch:ifqsize              4 # instruction fetch queue size (in insts)
-fetch:mplat                3 # extra branch mis-prediction latency
-fetch:speed                1 # speed of front-end of machine relative to execution core
-bpred             opcodecomb # branch predictor type {nottaken|taken|perfect|bimod|2lev|comb|opcodecomb}
-bpred:bimod     2048 # bimodal predictor config (<table size>)
-bpred:opcode    2048 # opcode predictor config (<table_size>)
-bpred:2lev      1 1024 8 0 # 2-level predictor config (<l1size> <l2size> <hist_size> <xor>)
-bpred:comb      1024 # combining predictor config (<meta_table_size>)
-bpred:opcodecomb 32768 # opcode hybrid combining predictor config (<meta_table_size>)
-bpred:ras                  8 # return address stack size (0 for no return stack)
-bpred:btb       512 4 # BTB config (<num_sets> <associativity>)
# -bpred:spec_update       <null> # speculative predictors update in {ID|WB} (default non-spec)
-decode:width               4 # instruction decode B/W (insts/cycle)
-issue:width                4 # instruction issue B/W (insts/cycle)
-issue:inorder          false # run pipeline with in-order issue
-issue:wrongpath         true # issue instructions down wrong execution paths
-commit:width               4 # instruction commit B/W (insts/cycle)
-ruu:size                  16 # register update unit (RUU) size
-lsq:size                   8 # load/store queue (LSQ) size
-cache:dl1       dl1:128:32:4:l # l1 data cache config, i.e., {<config>|none}
-cache:dl1lat               1 # l1 data cache hit latency (in cycles)
-cache:dl2       ul2:1024:64:4:l # l2 data cache config, i.e., {<config>|none}
-cache:dl2lat               6 # l2 data cache hit latency (in cycles)
-cache:il1       il1:512:32:1:l # l1 inst cache config, i.e., {<config>|dl1|dl2|none}
-cache:il1lat               1 # l1 instruction cache hit latency (in cycles)
-cache:il2                dl2 # l2 instruction cache config, i.e., {<config>|dl2|none}
-cache:il2lat               6 # l2 instruction cache hit latency (in cycles)
-cache:flush            false # flush caches on system calls
-cache:icompress        false # convert 64-bit inst addresses to 32-bit inst equivalents
-mem:lat         18 2 # memory access latency (<first_chunk> <inter_chunk>)
-mem:width                  8 # memory access bus width (in bytes)
-tlb:itlb        itlb:16:4096:4:l # instruction TLB config, i.e., {<config>|none}
-tlb:dtlb        dtlb:32:4096:4:l # data TLB config, i.e., {<config>|none}
-tlb:lat                   30 # inst/data TLB miss latency (in cycles)
-res:ialu                   4 # total number of integer ALU's available
-res:imult                  1 # total number of integer multiplier/dividers available
-res:memport                2 # total number of memory system ports available (to CPU)
-res:fpalu                  4 # total number of floating point ALU's available
-res:fpmult                 1 # total number of floating point multiplier/dividers available
# -pcstat              <null> # profile stat(s) against text addr's (mult uses ok)
-bugcompat              false # operate in backward-compatible bugs mode (for testing only)

  Pipetrace range arguments are formatted as follows:

    {{@|#}<start>}:{{@|#|+}<end>}

  Both ends of the range are optional, if neither are specified, the entire
  execution is traced.  Ranges that start with a `@' designate an address
  range to be traced, those that start with an `#' designate a cycle count
  range.  All other range values represent an instruction count range.  The
  second argument, if specified with a `+', indicates a value relative
  to the first argument, e.g., 1000:+100 == 1000:1100.  Program symbols may
  be used in all contexts.

    Examples:   -ptrace FOO.trc #0:#1000
                -ptrace BAR.trc @2000:
                -ptrace BLAH.trc :1500
                -ptrace UXXE.trc :
                -ptrace FOOBAR.trc @main:+278

  Branch predictor configuration examples for 2-level predictor:
    Configurations:   N, M, W, X
      N   # entries in first level (# of shift register(s))
      W   width of shift register(s)
      M   # entries in 2nd level (# of counters, or other FSM)
      X   (yes-1/no-0) xor history and address for 2nd level index
    Sample predictors:
      GAg     : 1, W, 2^W, 0
      GAp     : 1, W, M (M > 2^W), 0
      PAg     : N, W, 2^W, 0
      PAp     : N, W, M (M == 2^(N+W)), 0
      gshare  : 1, W, 2^W, 1
  Predictor `comb' combines a bimodal and a 2-level predictor.

  The cache config parameter <config> has the following format:

    <name>:<nsets>:<bsize>:<assoc>:<repl>

    <name>   - name of the cache being defined
    <nsets>  - number of sets in the cache
    <bsize>  - block size of the cache
    <assoc>  - associativity of the cache
    <repl>   - block replacement strategy, 'l'-LRU, 'f'-FIFO, 'r'-random

    Examples:   -cache:dl1 dl1:4096:32:1:l
                -dtlb dtlb:128:4096:32:r

  Cache levels can be unified by pointing a level of the instruction cache
  hierarchy at the data cache hiearchy using the "dl1" and "dl2" cache
  configuration arguments.  Most sensible combinations are supported, e.g.,

    A unified l2 cache (il2 is pointed at dl2):
      -cache:il1 il1:128:64:1:l -cache:il2 dl2
      -cache:dl1 dl1:256:32:1:l -cache:dl2 ul2:1024:64:2:l

    Or, a fully unified cache hierarchy (il1 pointed at dl1):
      -cache:il1 dl1
      -cache:dl1 ul1:256:32:1:l -cache:dl2 ul2:1024:64:2:l



sim: ** starting performance simulation **
warning: syscall: sigvec ignored
warning: syscall: sigvec ignored
 label_rtx emit_jump expand_label expand_goto expand_goto_internal expand_fixup fixup_gotos expand_asm expand_asm_operands expand_expr_stmt clear_last_expr expand_start_stmt_expr expand_end_stmt_expr expand_start_cond expand_end_cond expand_start_else expand_end_else expand_start_loop expand_start_loop_continue_elsewhere expand_loop_continue_here expand_end_loop expand_continue_loop expand_exit_loop expand_exit_loop_if_false expand_exit_something expand_null_return expand_null_return_1 expand_return drop_through_at_end_p tail_recursion_args expand_start_bindings use_variable use_variable_after expand_end_bindings expand_decl expand_decl_init expand_anon_union_decl expand_cleanups fixup_cleanups move_cleanups_up expand_start_case expand_start_case_dummy expand_end_case_dummy pushcase pushcase_range check_for_full_enumeration_handling expand_end_case do_jump_if_equal group_case_nodes balance_case_nodes node_has_low_bound node_has_high_bound node_is_bounded emit_jump_if_reachable emit_case_nodes get_frame_size assign_stack_local put_var_into_stack fixup_var_refs fixup_var_refs_insns fixup_var_refs_1 fixup_memory_subreg walk_fixup_memory_subreg fixup_stack_1 optimize_bit_field max_parm_reg_num get_first_nonparm_insn parm_stack_loc assign_parms get_structure_value_addr uninitialized_vars_warning setjmp_protect expand_function_start expand_function_end
time in parse: 0.000000
time in integration: 0.000000
time in jump: 0.000000
time in cse: 0.000000
time in loop: 0.000000
time in cse2: 0.000000
time in flow: 0.000000
time in combine: 0.000000
time in sched: 0.000000
time in local-alloc: 0.000000
time in global-alloc: 0.000000
time in sched2: 0.000000
time in dbranch: 0.000000
time in shorten-branch: 0.000000
time in stack-reg: 0.000000
time in final: 0.000000
time in varconst: 0.000000
time in symout: 0.000000
time in dump: 0.000000

sim: ** simulation statistics **
sim_num_insn              119403444 # total number of instructions committed
sim_num_refs               44167676 # total number of loads and stores committed
sim_num_loads              27853167 # total number of loads committed
sim_num_stores         16314509.0000 # total number of stores committed
sim_num_branches           24627128 # total number of branches committed
sim_elapsed_time                 29 # total simulation time in seconds
sim_inst_rate          4117360.1379 # simulation speed (in insts/sec)
sim_total_insn            150719394 # total number of instructions executed
sim_total_refs             54896199 # total number of loads and stores executed
sim_total_loads            36144786 # total number of loads executed
sim_total_stores       18751413.0000 # total number of stores executed
sim_total_branches         31178917 # total number of branches executed
sim_cycle                 148763593 # total simulation time in cycles
sim_IPC                      0.8026 # instructions per cycle
sim_CPI                      1.2459 # cycles per instruction
sim_exec_BW                  1.0131 # total instructions (mis-spec + committed) per cycle
sim_IPB                      4.8485 # instruction per branch
IFQ_count                 205911575 # cumulative IFQ occupancy
IFQ_fcount                 41796806 # cumulative IFQ full count
ifq_occupancy                1.3842 # avg IFQ occupancy (insn's)
ifq_rate                     1.0131 # avg IFQ dispatch rate (insn/cycle)
ifq_latency                  1.3662 # avg IFQ occupant latency (cycle's)
ifq_full                     0.2810 # fraction of time (cycle's) IFQ was full
RUU_count                 742522477 # cumulative RUU occupancy
RUU_fcount                 12521635 # cumulative RUU full count
ruu_occupancy                4.9913 # avg RUU occupancy (insn's)
ruu_rate                     1.0131 # avg RUU dispatch rate (insn/cycle)
ruu_latency                  4.9265 # avg RUU occupant latency (cycle's)
ruu_full                     0.0842 # fraction of time (cycle's) RUU was full
LSQ_count                 272952790 # cumulative LSQ occupancy
LSQ_fcount                  8992679 # cumulative LSQ full count
lsq_occupancy                1.8348 # avg LSQ occupancy (insn's)
lsq_rate                     1.0131 # avg LSQ dispatch rate (insn/cycle)
lsq_latency                  1.8110 # avg LSQ occupant latency (cycle's)
lsq_full                     0.0604 # fraction of time (cycle's) LSQ was full
sim_slip                 1044194179 # total number of slip cycles
avg_sim_slip                 8.7451 # the average slip between issue and retirement
bpred_opcodecomb.lookups     32997853 # total number of bpred lookups
bpred_opcodecomb.updates     24627128 # total number of updates
bpred_opcodecomb.addr_hits     18213965 # total number of address-predicted hits
bpred_opcodecomb.dir_hits     19499581 # total number of direction-predicted hits (includes addr-hits)
bpred_opcodecomb.used_bimod     11223358 # total number of bimodal predictions used
bpred_opcodecomb.used_2lev      8359421 # total number of 2-level predictions used
bpred_opcodecomb.misses      5127547 # total number of misses
bpred_opcodecomb.jr_hits       974979 # total number of address-predicted hits for JR's
bpred_opcodecomb.jr_seen      1985634 # total number of JR's seen
bpred_opcodecomb.jr_non_ras_hits.PP       970065 # total number of address-predicted hits for non-RAS JR's
bpred_opcodecomb.jr_non_ras_seen.PP      1980720 # total number of non-RAS JR's seen
bpred_opcodecomb.bpred_addr_rate    0.7396 # branch address-prediction rate (i.e., addr-hits/updates)
bpred_opcodecomb.bpred_dir_rate    0.7918 # branch direction-prediction rate (i.e., all-hits/updates)
bpred_opcodecomb.bpred_jr_rate    0.4910 # JR address-prediction rate (i.e., JR addr-hits/JRs seen)
bpred_opcodecomb.bpred_jr_non_ras_rate.PP    0.4898 # non-RAS JR addr-pred rate (ie, non-RAS JR hits/JRs seen)
bpred_opcodecomb.retstack_pushes      2356219 # total number of address pushed onto ret-addr stack
bpred_opcodecomb.retstack_pops         5948 # total number of address popped off of ret-addr stack
bpred_opcodecomb.used_ras.PP         4914 # total number of RAS predictions used
bpred_opcodecomb.ras_hits.PP         4914 # total number of RAS hits
bpred_opcodecomb.ras_rate.PP    1.0000 # RAS prediction rate (i.e., RAS hits/used RAS)
il1.accesses              169695967 # total number of accesses
il1.hits                  159188545 # total number of hits
il1.misses                 10507422 # total number of misses
il1.replacements           10506910 # total number of replacements
il1.writebacks                    0 # total number of writebacks
il1.invalidations                 0 # total number of invalidations
il1.miss_rate                0.0619 # miss rate (i.e., misses/ref)
il1.repl_rate                0.0619 # replacement rate (i.e., repls/ref)
il1.wb_rate                  0.0000 # writeback rate (i.e., wrbks/ref)
il1.inv_rate                 0.0000 # invalidation rate (i.e., invs/ref)
dl1.accesses               47212985 # total number of accesses
dl1.hits                   46496914 # total number of hits
dl1.misses                   716071 # total number of misses
dl1.replacements             715559 # total number of replacements
dl1.writebacks               223230 # total number of writebacks
dl1.invalidations                 0 # total number of invalidations
dl1.miss_rate                0.0152 # miss rate (i.e., misses/ref)
dl1.repl_rate                0.0152 # replacement rate (i.e., repls/ref)
dl1.wb_rate                  0.0047 # writeback rate (i.e., wrbks/ref)
dl1.inv_rate                 0.0000 # invalidation rate (i.e., invs/ref)
ul2.accesses               11446723 # total number of accesses
ul2.hits                   10974031 # total number of hits
ul2.misses                   472692 # total number of misses
ul2.replacements             468596 # total number of replacements
ul2.writebacks                55016 # total number of writebacks
ul2.invalidations                 0 # total number of invalidations
ul2.miss_rate                0.0413 # miss rate (i.e., misses/ref)
ul2.repl_rate                0.0409 # replacement rate (i.e., repls/ref)
ul2.wb_rate                  0.0048 # writeback rate (i.e., wrbks/ref)
ul2.inv_rate                 0.0000 # invalidation rate (i.e., invs/ref)
itlb.accesses             169695967 # total number of accesses
itlb.hits                 169551792 # total number of hits
itlb.misses                  144175 # total number of misses
itlb.replacements            144111 # total number of replacements
itlb.writebacks                   0 # total number of writebacks
itlb.invalidations                0 # total number of invalidations
itlb.miss_rate               0.0008 # miss rate (i.e., misses/ref)
itlb.repl_rate               0.0008 # replacement rate (i.e., repls/ref)
itlb.wb_rate                 0.0000 # writeback rate (i.e., wrbks/ref)
itlb.inv_rate                0.0000 # invalidation rate (i.e., invs/ref)
dtlb.accesses              47565375 # total number of accesses
dtlb.hits                  47561526 # total number of hits
dtlb.misses                    3849 # total number of misses
dtlb.replacements              3721 # total number of replacements
dtlb.writebacks                   0 # total number of writebacks
dtlb.invalidations                0 # total number of invalidations
dtlb.miss_rate               0.0001 # miss rate (i.e., misses/ref)
dtlb.repl_rate               0.0001 # replacement rate (i.e., repls/ref)
dtlb.wb_rate                 0.0000 # writeback rate (i.e., wrbks/ref)
dtlb.inv_rate                0.0000 # invalidation rate (i.e., invs/ref)
sim_invalid_addrs                 0 # total non-speculative bogus addresses seen (debug var)
ld_text_base             0x00400000 # program text (code) segment base
ld_text_size                2166768 # program text (code) size in bytes
ld_data_base             0x10000000 # program initialized data segment base
ld_data_size                 264644 # program init'ed `.data' and uninit'ed `.bss' size in bytes
ld_stack_base            0x7fffc000 # program stack segment base (highest address in stack)
ld_stack_size                 16384 # program initial stack size
ld_prog_entry            0x00400140 # program entry point (initial PC)
ld_environ_base          0x7fff8000 # program environment base address address
ld_target_big_endian              0 # target executable endian-ness, non-zero if big endian
mem.page_count                  806 # total number of pages allocated
mem.page_mem                  3224k # total size of memory pages allocated
mem.ptab_misses               15178 # total first level page table misses
mem.ptab_accesses        1248293892 # total page table accesses
mem.ptab_miss_rate           0.0000 # first level page table miss rate

