===== perl bimod 8 =====
sim-outorder: SimpleScalar/PISA Tool Set version 3.0 of March, 2023.
Copyright (c) 1994-2003 by Todd M. Austin, Ph.D. and SimpleScalar, LLC.
All Rights Reserved. This version of SimpleScalar is licensed for academic
non-commercial use.  No portion of this work may be used by any commercial
entity, or for any commercial purpose, without the prior written permission
of SimpleScalar, LLC (info@simplescalar.com).

sim: command line: ../simplesim-3.0/sim-outorder -bpred bimod -bpred:bimod 8 perl.ss ../inputs/perl.in 

sim: simulation started @ Fri Apr 17 01:13:27 2026, options follow:

sim-outorder: This simulator implements a very detailed out-of-order issue
superscalar processor with a two-level memory system and speculative
execution support.  This simulator is a performance simulator, tracking the
latency of all pipeline operations.

# -config                     # load configuration from a file
# -dumpconfig                 # dump configuration to a file
# -h                    false # print help message    
# -v                    false # verbose operation     
# -d                    false # enable debug message  
# -i                    false # start in Dlite debugger
-seed                       1 # random number generator seed (0 for timer seed)
# -q                    false # initialize and terminate immediately
# -chkpt               <null> # restore EIO trace execution from <fname>
# -redir:sim           <null> # redirect simulator output to file (non-interactive only)
# -redir:prog          <null> # redirect simulated program output to file
-nice                       0 # simulator scheduling priority
-max:inst                   0 # maximum number of inst's to execute
-fastfwd                    0 # number of insts skipped before timing starts
# -ptrace              <null> # generate pipetrace, i.e., <fname|stdout|stderr> <range>
-fetch:ifqsize              4 # instruction fetch queue size (in insts)
-fetch:mplat                3 # extra branch mis-prediction latency
-fetch:speed                1 # speed of front-end of machine relative to execution core
-bpred                  bimod # branch predictor type {nottaken|taken|perfect|bimod|2lev|comb|opcodecomb}
-bpred:bimod     8 # bimodal predictor config (<table size>)
-bpred:opcode    2048 # opcode predictor config (<table_size>)
-bpred:2lev      1 1024 8 0 # 2-level predictor config (<l1size> <l2size> <hist_size> <xor>)
-bpred:comb      1024 # combining predictor config (<meta_table_size>)
-bpred:opcodecomb 1024 # opcode hybrid combining predictor config (<meta_table_size>)
-bpred:ras                  8 # return address stack size (0 for no return stack)
-bpred:btb       512 4 # BTB config (<num_sets> <associativity>)
# -bpred:spec_update       <null> # speculative predictors update in {ID|WB} (default non-spec)
-decode:width               4 # instruction decode B/W (insts/cycle)
-issue:width                4 # instruction issue B/W (insts/cycle)
-issue:inorder          false # run pipeline with in-order issue
-issue:wrongpath         true # issue instructions down wrong execution paths
-commit:width               4 # instruction commit B/W (insts/cycle)
-ruu:size                  16 # register update unit (RUU) size
-lsq:size                   8 # load/store queue (LSQ) size
-cache:dl1       dl1:128:32:4:l # l1 data cache config, i.e., {<config>|none}
-cache:dl1lat               1 # l1 data cache hit latency (in cycles)
-cache:dl2       ul2:1024:64:4:l # l2 data cache config, i.e., {<config>|none}
-cache:dl2lat               6 # l2 data cache hit latency (in cycles)
-cache:il1       il1:512:32:1:l # l1 inst cache config, i.e., {<config>|dl1|dl2|none}
-cache:il1lat               1 # l1 instruction cache hit latency (in cycles)
-cache:il2                dl2 # l2 instruction cache config, i.e., {<config>|dl2|none}
-cache:il2lat               6 # l2 instruction cache hit latency (in cycles)
-cache:flush            false # flush caches on system calls
-cache:icompress        false # convert 64-bit inst addresses to 32-bit inst equivalents
-mem:lat         18 2 # memory access latency (<first_chunk> <inter_chunk>)
-mem:width                  8 # memory access bus width (in bytes)
-tlb:itlb        itlb:16:4096:4:l # instruction TLB config, i.e., {<config>|none}
-tlb:dtlb        dtlb:32:4096:4:l # data TLB config, i.e., {<config>|none}
-tlb:lat                   30 # inst/data TLB miss latency (in cycles)
-res:ialu                   4 # total number of integer ALU's available
-res:imult                  1 # total number of integer multiplier/dividers available
-res:memport                2 # total number of memory system ports available (to CPU)
-res:fpalu                  4 # total number of floating point ALU's available
-res:fpmult                 1 # total number of floating point multiplier/dividers available
# -pcstat              <null> # profile stat(s) against text addr's (mult uses ok)
-bugcompat              false # operate in backward-compatible bugs mode (for testing only)

  Pipetrace range arguments are formatted as follows:

    {{@|#}<start>}:{{@|#|+}<end>}

  Both ends of the range are optional, if neither are specified, the entire
  execution is traced.  Ranges that start with a `@' designate an address
  range to be traced, those that start with an `#' designate a cycle count
  range.  All other range values represent an instruction count range.  The
  second argument, if specified with a `+', indicates a value relative
  to the first argument, e.g., 1000:+100 == 1000:1100.  Program symbols may
  be used in all contexts.

    Examples:   -ptrace FOO.trc #0:#1000
                -ptrace BAR.trc @2000:
                -ptrace BLAH.trc :1500
                -ptrace UXXE.trc :
                -ptrace FOOBAR.trc @main:+278

  Branch predictor configuration examples for 2-level predictor:
    Configurations:   N, M, W, X
      N   # entries in first level (# of shift register(s))
      W   width of shift register(s)
      M   # entries in 2nd level (# of counters, or other FSM)
      X   (yes-1/no-0) xor history and address for 2nd level index
    Sample predictors:
      GAg     : 1, W, 2^W, 0
      GAp     : 1, W, M (M > 2^W), 0
      PAg     : N, W, 2^W, 0
      PAp     : N, W, M (M == 2^(N+W)), 0
      gshare  : 1, W, 2^W, 1
  Predictor `comb' combines a bimodal and a 2-level predictor.

  The cache config parameter <config> has the following format:

    <name>:<nsets>:<bsize>:<assoc>:<repl>

    <name>   - name of the cache being defined
    <nsets>  - number of sets in the cache
    <bsize>  - block size of the cache
    <assoc>  - associativity of the cache
    <repl>   - block replacement strategy, 'l'-LRU, 'f'-FIFO, 'r'-random

    Examples:   -cache:dl1 dl1:4096:32:1:l
                -dtlb dtlb:128:4096:32:r

  Cache levels can be unified by pointing a level of the instruction cache
  hierarchy at the data cache hiearchy using the "dl1" and "dl2" cache
  configuration arguments.  Most sensible combinations are supported, e.g.,

    A unified l2 cache (il2 is pointed at dl2):
      -cache:il1 il1:128:64:1:l -cache:il2 dl2
      -cache:dl1 dl1:256:32:1:l -cache:dl2 ul2:1024:64:2:l

    Or, a fully unified cache hierarchy (il1 pointed at dl1):
      -cache:il1 dl1
      -cache:dl1 ul1:256:32:1:l -cache:dl2 ul2:1024:64:2:l



sim: ** starting performance simulation **
Can't open tests.pl at ../inputs/perl.in line 462.
1..3
#1	:abcdef: eq :abcdef:
ok 1
#2	:abcdefxyz: eq :abcdefxyz:
ok 2
#3	:abcdef: eq :abcdef:
ok 3
1..36
ok 1
ok 2
ok 3
ok 4
ok 5
ok 6
ok 7
ok 8
ok 9
ok 10
ok 11
ok 12
ok 13
ok 14
ok 15
ok 16
ok 17
ok 18
ok 19
ok 20
ok 21
ok 22
ok 23
ok 24
ok 25
ok 26
ok 27
ok 28
ok 29
ok 30
ok 31
ok 32
ok 33
ok 34
ok 35
ok 36
1..34
ok 1
ok 2
ok 3
ok 4
ok 5
ok 6
ok 7
ok 8
ok 9
ok 10
ok 11
ok 12
ok 13
ok 14
ok 15
ok 16
ok 17
ok 18
ok 19
ok 20
ok 21
ok 22
ok 23
ok 24
ok 25
ok 26
ok 27
ok 28
ok 29
ok 30
ok 31
ok 32
ok 33
ok 34
1..4
ok 19
not ok 1 1abc
ok 2
ok 3
ok 4
1..4
ok 1
ok 2
ok 3
ok 4
1..6
ok 1
ok 2
ok 3
ok 4
not ok 5
ok 6
1..15
#2	:20: eq :value:
not ok 2
ok 3
#5	:20: eq :value:
not ok 5
ok 6
ok 7
#8	:value: eq :value:
ok 8
ok 9
ok 10
ok 11
ok 12
ok 13
ok 14
ok 15
1..3
ok 1
ok 2
ok 3
1..16
ok 1
ok 2
ok 3
ok 4
ok 5
ok 6
ok 7
ok 8
ok 9
ok 10
ok 11
ok 12
ok 13
ok 14
ok 15
ok 16
1..6
ok 1
ok 2
ok 3
ok 4
ok 5
ok 6
1..8
ok 1
ok 2
ok 3
ok 4
ok 5
ok 6
ok 7

sim: ** simulation statistics **
sim_num_insn               21950523 # total number of instructions committed
sim_num_refs                7998467 # total number of loads and stores committed
sim_num_loads               4735615 # total number of loads committed
sim_num_stores         3262852.0000 # total number of stores committed
sim_num_branches            4377016 # total number of branches committed
sim_elapsed_time                  6 # total simulation time in seconds
sim_inst_rate          3658420.5000 # simulation speed (in insts/sec)
sim_total_insn             28882461 # total number of instructions executed
sim_total_refs             10095820 # total number of loads and stores executed
sim_total_loads             6099082 # total number of loads executed
sim_total_stores       3996738.0000 # total number of stores executed
sim_total_branches          5852629 # total number of branches executed
sim_cycle                  29144162 # total simulation time in cycles
sim_IPC                      0.7532 # instructions per cycle
sim_CPI                      1.3277 # cycles per instruction
sim_exec_BW                  0.9910 # total instructions (mis-spec + committed) per cycle
sim_IPB                      5.0150 # instruction per branch
IFQ_count                  39288314 # cumulative IFQ occupancy
IFQ_fcount                  7658147 # cumulative IFQ full count
ifq_occupancy                1.3481 # avg IFQ occupancy (insn's)
ifq_rate                     0.9910 # avg IFQ dispatch rate (insn/cycle)
ifq_latency                  1.3603 # avg IFQ occupant latency (cycle's)
ifq_full                     0.2628 # fraction of time (cycle's) IFQ was full
RUU_count                 141289442 # cumulative RUU occupancy
RUU_fcount                  2776010 # cumulative RUU full count
ruu_occupancy                4.8480 # avg RUU occupancy (insn's)
ruu_rate                     0.9910 # avg RUU dispatch rate (insn/cycle)
ruu_latency                  4.8919 # avg RUU occupant latency (cycle's)
ruu_full                     0.0953 # fraction of time (cycle's) RUU was full
LSQ_count                  52409724 # cumulative LSQ occupancy
LSQ_fcount                  1042518 # cumulative LSQ full count
lsq_occupancy                1.7983 # avg LSQ occupancy (insn's)
lsq_rate                     0.9910 # avg LSQ dispatch rate (insn/cycle)
lsq_latency                  1.8146 # avg LSQ occupant latency (cycle's)
lsq_full                     0.0358 # fraction of time (cycle's) LSQ was full
sim_slip                  193092423 # total number of slip cycles
avg_sim_slip                 8.7967 # the average slip between issue and retirement
bpred_bimod.lookups         6309494 # total number of bpred lookups
bpred_bimod.updates         4377016 # total number of updates
bpred_bimod.addr_hits       2904498 # total number of address-predicted hits
bpred_bimod.dir_hits        3112797 # total number of direction-predicted hits (includes addr-hits)
bpred_bimod.misses          1264219 # total number of misses
bpred_bimod.jr_hits          204986 # total number of address-predicted hits for JR's
bpred_bimod.jr_seen          403513 # total number of JR's seen
bpred_bimod.jr_non_ras_hits.PP       204986 # total number of address-predicted hits for non-RAS JR's
bpred_bimod.jr_non_ras_seen.PP       403513 # total number of non-RAS JR's seen
bpred_bimod.bpred_addr_rate    0.6636 # branch address-prediction rate (i.e., addr-hits/updates)
bpred_bimod.bpred_dir_rate    0.7112 # branch direction-prediction rate (i.e., all-hits/updates)
bpred_bimod.bpred_jr_rate    0.5080 # JR address-prediction rate (i.e., JR addr-hits/JRs seen)
bpred_bimod.bpred_jr_non_ras_rate.PP    0.5080 # non-RAS JR addr-pred rate (ie, non-RAS JR hits/JRs seen)
bpred_bimod.retstack_pushes       565075 # total number of address pushed onto ret-addr stack
bpred_bimod.retstack_pops            0 # total number of address popped off of ret-addr stack
bpred_bimod.used_ras.PP            0 # total number of RAS predictions used
bpred_bimod.ras_hits.PP            0 # total number of RAS hits
bpred_bimod.ras_rate.PP <error: divide by zero> # RAS prediction rate (i.e., RAS hits/used RAS)
il1.accesses               33036651 # total number of accesses
il1.hits                   30667144 # total number of hits
il1.misses                  2369507 # total number of misses
il1.replacements            2368995 # total number of replacements
il1.writebacks                    0 # total number of writebacks
il1.invalidations                 0 # total number of invalidations
il1.miss_rate                0.0717 # miss rate (i.e., misses/ref)
il1.repl_rate                0.0717 # replacement rate (i.e., repls/ref)
il1.wb_rate                  0.0000 # writeback rate (i.e., wrbks/ref)
il1.inv_rate                 0.0000 # invalidation rate (i.e., invs/ref)
dl1.accesses                8577308 # total number of accesses
dl1.hits                    8439808 # total number of hits
dl1.misses                   137500 # total number of misses
dl1.replacements             136988 # total number of replacements
dl1.writebacks                65925 # total number of writebacks
dl1.invalidations                 0 # total number of invalidations
dl1.miss_rate                0.0160 # miss rate (i.e., misses/ref)
dl1.repl_rate                0.0160 # replacement rate (i.e., repls/ref)
dl1.wb_rate                  0.0077 # writeback rate (i.e., wrbks/ref)
dl1.inv_rate                 0.0000 # invalidation rate (i.e., invs/ref)
ul2.accesses                2572932 # total number of accesses
ul2.hits                    2533296 # total number of hits
ul2.misses                    39636 # total number of misses
ul2.replacements              35540 # total number of replacements
ul2.writebacks                19308 # total number of writebacks
ul2.invalidations                 0 # total number of invalidations
ul2.miss_rate                0.0154 # miss rate (i.e., misses/ref)
ul2.repl_rate                0.0138 # replacement rate (i.e., repls/ref)
ul2.wb_rate                  0.0075 # writeback rate (i.e., wrbks/ref)
ul2.inv_rate                 0.0000 # invalidation rate (i.e., invs/ref)
itlb.accesses              33036651 # total number of accesses
itlb.hits                  33032706 # total number of hits
itlb.misses                    3945 # total number of misses
itlb.replacements              3881 # total number of replacements
itlb.writebacks                   0 # total number of writebacks
itlb.invalidations                0 # total number of invalidations
itlb.miss_rate               0.0001 # miss rate (i.e., misses/ref)
itlb.repl_rate               0.0001 # replacement rate (i.e., repls/ref)
itlb.wb_rate                 0.0000 # writeback rate (i.e., wrbks/ref)
itlb.inv_rate                0.0000 # invalidation rate (i.e., invs/ref)
dtlb.accesses               8614372 # total number of accesses
dtlb.hits                   8613740 # total number of hits
dtlb.misses                     632 # total number of misses
dtlb.replacements               504 # total number of replacements
dtlb.writebacks                   0 # total number of writebacks
dtlb.invalidations                0 # total number of invalidations
dtlb.miss_rate               0.0001 # miss rate (i.e., misses/ref)
dtlb.repl_rate               0.0001 # replacement rate (i.e., repls/ref)
dtlb.wb_rate                 0.0000 # writeback rate (i.e., wrbks/ref)
dtlb.inv_rate                0.0000 # invalidation rate (i.e., invs/ref)
sim_invalid_addrs                 0 # total non-speculative bogus addresses seen (debug var)
ld_text_base             0x00400000 # program text (code) segment base
ld_text_size                 535584 # program text (code) size in bytes
ld_data_base             0x10000000 # program initialized data segment base
ld_data_size                  77204 # program init'ed `.data' and uninit'ed `.bss' size in bytes
ld_stack_base            0x7fffc000 # program stack segment base (highest address in stack)
ld_stack_size                 16384 # program initial stack size
ld_prog_entry            0x00400140 # program entry point (initial PC)
ld_environ_base          0x7fff8000 # program environment base address address
ld_target_big_endian              0 # target executable endian-ness, non-zero if big endian
mem.page_count                  422 # total number of pages allocated
mem.page_mem                  1688k # total size of memory pages allocated
mem.ptab_misses                1391 # total first level page table misses
mem.ptab_accesses         237588039 # total page table accesses
mem.ptab_miss_rate           0.0000 # first level page table miss rate

===== perl bimod 16 =====
sim-outorder: SimpleScalar/PISA Tool Set version 3.0 of March, 2023.
Copyright (c) 1994-2003 by Todd M. Austin, Ph.D. and SimpleScalar, LLC.
All Rights Reserved. This version of SimpleScalar is licensed for academic
non-commercial use.  No portion of this work may be used by any commercial
entity, or for any commercial purpose, without the prior written permission
of SimpleScalar, LLC (info@simplescalar.com).

sim: command line: ../simplesim-3.0/sim-outorder -bpred bimod -bpred:bimod 16 perl.ss ../inputs/perl.in 

sim: simulation started @ Fri Apr 17 01:13:33 2026, options follow:

sim-outorder: This simulator implements a very detailed out-of-order issue
superscalar processor with a two-level memory system and speculative
execution support.  This simulator is a performance simulator, tracking the
latency of all pipeline operations.

# -config                     # load configuration from a file
# -dumpconfig                 # dump configuration to a file
# -h                    false # print help message    
# -v                    false # verbose operation     
# -d                    false # enable debug message  
# -i                    false # start in Dlite debugger
-seed                       1 # random number generator seed (0 for timer seed)
# -q                    false # initialize and terminate immediately
# -chkpt               <null> # restore EIO trace execution from <fname>
# -redir:sim           <null> # redirect simulator output to file (non-interactive only)
# -redir:prog          <null> # redirect simulated program output to file
-nice                       0 # simulator scheduling priority
-max:inst                   0 # maximum number of inst's to execute
-fastfwd                    0 # number of insts skipped before timing starts
# -ptrace              <null> # generate pipetrace, i.e., <fname|stdout|stderr> <range>
-fetch:ifqsize              4 # instruction fetch queue size (in insts)
-fetch:mplat                3 # extra branch mis-prediction latency
-fetch:speed                1 # speed of front-end of machine relative to execution core
-bpred                  bimod # branch predictor type {nottaken|taken|perfect|bimod|2lev|comb|opcodecomb}
-bpred:bimod     16 # bimodal predictor config (<table size>)
-bpred:opcode    2048 # opcode predictor config (<table_size>)
-bpred:2lev      1 1024 8 0 # 2-level predictor config (<l1size> <l2size> <hist_size> <xor>)
-bpred:comb      1024 # combining predictor config (<meta_table_size>)
-bpred:opcodecomb 1024 # opcode hybrid combining predictor config (<meta_table_size>)
-bpred:ras                  8 # return address stack size (0 for no return stack)
-bpred:btb       512 4 # BTB config (<num_sets> <associativity>)
# -bpred:spec_update       <null> # speculative predictors update in {ID|WB} (default non-spec)
-decode:width               4 # instruction decode B/W (insts/cycle)
-issue:width                4 # instruction issue B/W (insts/cycle)
-issue:inorder          false # run pipeline with in-order issue
-issue:wrongpath         true # issue instructions down wrong execution paths
-commit:width               4 # instruction commit B/W (insts/cycle)
-ruu:size                  16 # register update unit (RUU) size
-lsq:size                   8 # load/store queue (LSQ) size
-cache:dl1       dl1:128:32:4:l # l1 data cache config, i.e., {<config>|none}
-cache:dl1lat               1 # l1 data cache hit latency (in cycles)
-cache:dl2       ul2:1024:64:4:l # l2 data cache config, i.e., {<config>|none}
-cache:dl2lat               6 # l2 data cache hit latency (in cycles)
-cache:il1       il1:512:32:1:l # l1 inst cache config, i.e., {<config>|dl1|dl2|none}
-cache:il1lat               1 # l1 instruction cache hit latency (in cycles)
-cache:il2                dl2 # l2 instruction cache config, i.e., {<config>|dl2|none}
-cache:il2lat               6 # l2 instruction cache hit latency (in cycles)
-cache:flush            false # flush caches on system calls
-cache:icompress        false # convert 64-bit inst addresses to 32-bit inst equivalents
-mem:lat         18 2 # memory access latency (<first_chunk> <inter_chunk>)
-mem:width                  8 # memory access bus width (in bytes)
-tlb:itlb        itlb:16:4096:4:l # instruction TLB config, i.e., {<config>|none}
-tlb:dtlb        dtlb:32:4096:4:l # data TLB config, i.e., {<config>|none}
-tlb:lat                   30 # inst/data TLB miss latency (in cycles)
-res:ialu                   4 # total number of integer ALU's available
-res:imult                  1 # total number of integer multiplier/dividers available
-res:memport                2 # total number of memory system ports available (to CPU)
-res:fpalu                  4 # total number of floating point ALU's available
-res:fpmult                 1 # total number of floating point multiplier/dividers available
# -pcstat              <null> # profile stat(s) against text addr's (mult uses ok)
-bugcompat              false # operate in backward-compatible bugs mode (for testing only)

  Pipetrace range arguments are formatted as follows:

    {{@|#}<start>}:{{@|#|+}<end>}

  Both ends of the range are optional, if neither are specified, the entire
  execution is traced.  Ranges that start with a `@' designate an address
  range to be traced, those that start with an `#' designate a cycle count
  range.  All other range values represent an instruction count range.  The
  second argument, if specified with a `+', indicates a value relative
  to the first argument, e.g., 1000:+100 == 1000:1100.  Program symbols may
  be used in all contexts.

    Examples:   -ptrace FOO.trc #0:#1000
                -ptrace BAR.trc @2000:
                -ptrace BLAH.trc :1500
                -ptrace UXXE.trc :
                -ptrace FOOBAR.trc @main:+278

  Branch predictor configuration examples for 2-level predictor:
    Configurations:   N, M, W, X
      N   # entries in first level (# of shift register(s))
      W   width of shift register(s)
      M   # entries in 2nd level (# of counters, or other FSM)
      X   (yes-1/no-0) xor history and address for 2nd level index
    Sample predictors:
      GAg     : 1, W, 2^W, 0
      GAp     : 1, W, M (M > 2^W), 0
      PAg     : N, W, 2^W, 0
      PAp     : N, W, M (M == 2^(N+W)), 0
      gshare  : 1, W, 2^W, 1
  Predictor `comb' combines a bimodal and a 2-level predictor.

  The cache config parameter <config> has the following format:

    <name>:<nsets>:<bsize>:<assoc>:<repl>

    <name>   - name of the cache being defined
    <nsets>  - number of sets in the cache
    <bsize>  - block size of the cache
    <assoc>  - associativity of the cache
    <repl>   - block replacement strategy, 'l'-LRU, 'f'-FIFO, 'r'-random

    Examples:   -cache:dl1 dl1:4096:32:1:l
                -dtlb dtlb:128:4096:32:r

  Cache levels can be unified by pointing a level of the instruction cache
  hierarchy at the data cache hiearchy using the "dl1" and "dl2" cache
  configuration arguments.  Most sensible combinations are supported, e.g.,

    A unified l2 cache (il2 is pointed at dl2):
      -cache:il1 il1:128:64:1:l -cache:il2 dl2
      -cache:dl1 dl1:256:32:1:l -cache:dl2 ul2:1024:64:2:l

    Or, a fully unified cache hierarchy (il1 pointed at dl1):
      -cache:il1 dl1
      -cache:dl1 ul1:256:32:1:l -cache:dl2 ul2:1024:64:2:l



sim: ** starting performance simulation **
Can't open tests.pl at ../inputs/perl.in line 462.
1..3
#1	:abcdef: eq :abcdef:
ok 1
#2	:abcdefxyz: eq :abcdefxyz:
ok 2
#3	:abcdef: eq :abcdef:
ok 3
1..36
ok 1
ok 2
ok 3
ok 4
ok 5
ok 6
ok 7
ok 8
ok 9
ok 10
ok 11
ok 12
ok 13
ok 14
ok 15
ok 16
ok 17
ok 18
ok 19
ok 20
ok 21
ok 22
ok 23
ok 24
ok 25
ok 26
ok 27
ok 28
ok 29
ok 30
ok 31
ok 32
ok 33
ok 34
ok 35
ok 36
1..34
ok 1
ok 2
ok 3
ok 4
ok 5
ok 6
ok 7
ok 8
ok 9
ok 10
ok 11
ok 12
ok 13
ok 14
ok 15
ok 16
ok 17
ok 18
ok 19
ok 20
ok 21
ok 22
ok 23
ok 24
ok 25
ok 26
ok 27
ok 28
ok 29
ok 30
ok 31
ok 32
ok 33
ok 34
1..4
ok 19
not ok 1 1abc
ok 2
ok 3
ok 4
1..4
ok 1
ok 2
ok 3
ok 4
1..6
ok 1
ok 2
ok 3
ok 4
not ok 5
ok 6
1..15
#2	:20: eq :value:
not ok 2
ok 3
#5	:20: eq :value:
not ok 5
ok 6
ok 7
#8	:value: eq :value:
ok 8
ok 9
ok 10
ok 11
ok 12
ok 13
ok 14
ok 15
1..3
ok 1
ok 2
ok 3
1..16
ok 1
ok 2
ok 3
ok 4
ok 5
ok 6
ok 7
ok 8
ok 9
ok 10
ok 11
ok 12
ok 13
ok 14
ok 15
ok 16
1..6
ok 1
ok 2
ok 3
ok 4
ok 5
ok 6
1..8
ok 1
ok 2
ok 3
ok 4
ok 5
ok 6
ok 7

sim: ** simulation statistics **
sim_num_insn               21950523 # total number of instructions committed
sim_num_refs                7998467 # total number of loads and stores committed
sim_num_loads               4735615 # total number of loads committed
sim_num_stores         3262852.0000 # total number of stores committed
sim_num_branches            4377016 # total number of branches committed
sim_elapsed_time                  6 # total simulation time in seconds
sim_inst_rate          3658420.5000 # simulation speed (in insts/sec)
sim_total_insn             28228102 # total number of instructions executed
sim_total_refs              9885360 # total number of loads and stores executed
sim_total_loads             5935076 # total number of loads executed
sim_total_stores       3950284.0000 # total number of stores executed
sim_total_branches          5714241 # total number of branches executed
sim_cycle                  28665926 # total simulation time in cycles
sim_IPC                      0.7657 # instructions per cycle
sim_CPI                      1.3059 # cycles per instruction
sim_exec_BW                  0.9847 # total instructions (mis-spec + committed) per cycle
sim_IPB                      5.0150 # instruction per branch
IFQ_count                  38449210 # cumulative IFQ occupancy
IFQ_fcount                  7439185 # cumulative IFQ full count
ifq_occupancy                1.3413 # avg IFQ occupancy (insn's)
ifq_rate                     0.9847 # avg IFQ dispatch rate (insn/cycle)
ifq_latency                  1.3621 # avg IFQ occupant latency (cycle's)
ifq_full                     0.2595 # fraction of time (cycle's) IFQ was full
RUU_count                 139748649 # cumulative RUU occupancy
RUU_fcount                  2799505 # cumulative RUU full count
ruu_occupancy                4.8751 # avg RUU occupancy (insn's)
ruu_rate                     0.9847 # avg RUU dispatch rate (insn/cycle)
ruu_latency                  4.9507 # avg RUU occupant latency (cycle's)
ruu_full                     0.0977 # fraction of time (cycle's) RUU was full
LSQ_count                  51831616 # cumulative LSQ occupancy
LSQ_fcount                  1106864 # cumulative LSQ full count
lsq_occupancy                1.8081 # avg LSQ occupancy (insn's)
lsq_rate                     0.9847 # avg LSQ dispatch rate (insn/cycle)
lsq_latency                  1.8362 # avg LSQ occupant latency (cycle's)
lsq_full                     0.0386 # fraction of time (cycle's) LSQ was full
sim_slip                  194540561 # total number of slip cycles
avg_sim_slip                 8.8627 # the average slip between issue and retirement
bpred_bimod.lookups         6117408 # total number of bpred lookups
bpred_bimod.updates         4377016 # total number of updates
bpred_bimod.addr_hits       3028512 # total number of address-predicted hits
bpred_bimod.dir_hits        3237104 # total number of direction-predicted hits (includes addr-hits)
bpred_bimod.misses          1139912 # total number of misses
bpred_bimod.jr_hits          204986 # total number of address-predicted hits for JR's
bpred_bimod.jr_seen          403513 # total number of JR's seen
bpred_bimod.jr_non_ras_hits.PP       204986 # total number of address-predicted hits for non-RAS JR's
bpred_bimod.jr_non_ras_seen.PP       403513 # total number of non-RAS JR's seen
bpred_bimod.bpred_addr_rate    0.6919 # branch address-prediction rate (i.e., addr-hits/updates)
bpred_bimod.bpred_dir_rate    0.7396 # branch direction-prediction rate (i.e., all-hits/updates)
bpred_bimod.bpred_jr_rate    0.5080 # JR address-prediction rate (i.e., JR addr-hits/JRs seen)
bpred_bimod.bpred_jr_non_ras_rate.PP    0.5080 # non-RAS JR addr-pred rate (ie, non-RAS JR hits/JRs seen)
bpred_bimod.retstack_pushes       541210 # total number of address pushed onto ret-addr stack
bpred_bimod.retstack_pops            0 # total number of address popped off of ret-addr stack
bpred_bimod.used_ras.PP            0 # total number of RAS predictions used
bpred_bimod.ras_hits.PP            0 # total number of RAS hits
bpred_bimod.ras_rate.PP <error: divide by zero> # RAS prediction rate (i.e., RAS hits/used RAS)
il1.accesses               32244611 # total number of accesses
il1.hits                   29857249 # total number of hits
il1.misses                  2387362 # total number of misses
il1.replacements            2386850 # total number of replacements
il1.writebacks                    0 # total number of writebacks
il1.invalidations                 0 # total number of invalidations
il1.miss_rate                0.0740 # miss rate (i.e., misses/ref)
il1.repl_rate                0.0740 # replacement rate (i.e., repls/ref)
il1.wb_rate                  0.0000 # writeback rate (i.e., wrbks/ref)
il1.inv_rate                 0.0000 # invalidation rate (i.e., invs/ref)
dl1.accesses                8494575 # total number of accesses
dl1.hits                    8357727 # total number of hits
dl1.misses                   136848 # total number of misses
dl1.replacements             136336 # total number of replacements
dl1.writebacks                65731 # total number of writebacks
dl1.invalidations                 0 # total number of invalidations
dl1.miss_rate                0.0161 # miss rate (i.e., misses/ref)
dl1.repl_rate                0.0160 # replacement rate (i.e., repls/ref)
dl1.wb_rate                  0.0077 # writeback rate (i.e., wrbks/ref)
dl1.inv_rate                 0.0000 # invalidation rate (i.e., invs/ref)
ul2.accesses                2589941 # total number of accesses
ul2.hits                    2550295 # total number of hits
ul2.misses                    39646 # total number of misses
ul2.replacements              35550 # total number of replacements
ul2.writebacks                19291 # total number of writebacks
ul2.invalidations                 0 # total number of invalidations
ul2.miss_rate                0.0153 # miss rate (i.e., misses/ref)
ul2.repl_rate                0.0137 # replacement rate (i.e., repls/ref)
ul2.wb_rate                  0.0074 # writeback rate (i.e., wrbks/ref)
ul2.inv_rate                 0.0000 # invalidation rate (i.e., invs/ref)
itlb.accesses              32244611 # total number of accesses
itlb.hits                  32240786 # total number of hits
itlb.misses                    3825 # total number of misses
itlb.replacements              3761 # total number of replacements
itlb.writebacks                   0 # total number of writebacks
itlb.invalidations                0 # total number of invalidations
itlb.miss_rate               0.0001 # miss rate (i.e., misses/ref)
itlb.repl_rate               0.0001 # replacement rate (i.e., repls/ref)
itlb.wb_rate                 0.0000 # writeback rate (i.e., wrbks/ref)
itlb.inv_rate                0.0000 # invalidation rate (i.e., invs/ref)
dtlb.accesses               8533596 # total number of accesses
dtlb.hits                   8532964 # total number of hits
dtlb.misses                     632 # total number of misses
dtlb.replacements               504 # total number of replacements
dtlb.writebacks                   0 # total number of writebacks
dtlb.invalidations                0 # total number of invalidations
dtlb.miss_rate               0.0001 # miss rate (i.e., misses/ref)
dtlb.repl_rate               0.0001 # replacement rate (i.e., repls/ref)
dtlb.wb_rate                 0.0000 # writeback rate (i.e., wrbks/ref)
dtlb.inv_rate                0.0000 # invalidation rate (i.e., invs/ref)
sim_invalid_addrs                 0 # total non-speculative bogus addresses seen (debug var)
ld_text_base             0x00400000 # program text (code) segment base
ld_text_size                 535584 # program text (code) size in bytes
ld_data_base             0x10000000 # program initialized data segment base
ld_data_size                  77204 # program init'ed `.data' and uninit'ed `.bss' size in bytes
ld_stack_base            0x7fffc000 # program stack segment base (highest address in stack)
ld_stack_size                 16384 # program initial stack size
ld_prog_entry            0x00400140 # program entry point (initial PC)
ld_environ_base          0x7fff8000 # program environment base address address
ld_target_big_endian              0 # target executable endian-ness, non-zero if big endian
mem.page_count                  422 # total number of pages allocated
mem.page_mem                  1688k # total size of memory pages allocated
mem.ptab_misses                1183 # total first level page table misses
mem.ptab_accesses         233353009 # total page table accesses
mem.ptab_miss_rate           0.0000 # first level page table miss rate

===== perl bimod 32 =====
sim-outorder: SimpleScalar/PISA Tool Set version 3.0 of March, 2023.
Copyright (c) 1994-2003 by Todd M. Austin, Ph.D. and SimpleScalar, LLC.
All Rights Reserved. This version of SimpleScalar is licensed for academic
non-commercial use.  No portion of this work may be used by any commercial
entity, or for any commercial purpose, without the prior written permission
of SimpleScalar, LLC (info@simplescalar.com).

sim: command line: ../simplesim-3.0/sim-outorder -bpred bimod -bpred:bimod 32 perl.ss ../inputs/perl.in 

sim: simulation started @ Fri Apr 17 01:13:39 2026, options follow:

sim-outorder: This simulator implements a very detailed out-of-order issue
superscalar processor with a two-level memory system and speculative
execution support.  This simulator is a performance simulator, tracking the
latency of all pipeline operations.

# -config                     # load configuration from a file
# -dumpconfig                 # dump configuration to a file
# -h                    false # print help message    
# -v                    false # verbose operation     
# -d                    false # enable debug message  
# -i                    false # start in Dlite debugger
-seed                       1 # random number generator seed (0 for timer seed)
# -q                    false # initialize and terminate immediately
# -chkpt               <null> # restore EIO trace execution from <fname>
# -redir:sim           <null> # redirect simulator output to file (non-interactive only)
# -redir:prog          <null> # redirect simulated program output to file
-nice                       0 # simulator scheduling priority
-max:inst                   0 # maximum number of inst's to execute
-fastfwd                    0 # number of insts skipped before timing starts
# -ptrace              <null> # generate pipetrace, i.e., <fname|stdout|stderr> <range>
-fetch:ifqsize              4 # instruction fetch queue size (in insts)
-fetch:mplat                3 # extra branch mis-prediction latency
-fetch:speed                1 # speed of front-end of machine relative to execution core
-bpred                  bimod # branch predictor type {nottaken|taken|perfect|bimod|2lev|comb|opcodecomb}
-bpred:bimod     32 # bimodal predictor config (<table size>)
-bpred:opcode    2048 # opcode predictor config (<table_size>)
-bpred:2lev      1 1024 8 0 # 2-level predictor config (<l1size> <l2size> <hist_size> <xor>)
-bpred:comb      1024 # combining predictor config (<meta_table_size>)
-bpred:opcodecomb 1024 # opcode hybrid combining predictor config (<meta_table_size>)
-bpred:ras                  8 # return address stack size (0 for no return stack)
-bpred:btb       512 4 # BTB config (<num_sets> <associativity>)
# -bpred:spec_update       <null> # speculative predictors update in {ID|WB} (default non-spec)
-decode:width               4 # instruction decode B/W (insts/cycle)
-issue:width                4 # instruction issue B/W (insts/cycle)
-issue:inorder          false # run pipeline with in-order issue
-issue:wrongpath         true # issue instructions down wrong execution paths
-commit:width               4 # instruction commit B/W (insts/cycle)
-ruu:size                  16 # register update unit (RUU) size
-lsq:size                   8 # load/store queue (LSQ) size
-cache:dl1       dl1:128:32:4:l # l1 data cache config, i.e., {<config>|none}
-cache:dl1lat               1 # l1 data cache hit latency (in cycles)
-cache:dl2       ul2:1024:64:4:l # l2 data cache config, i.e., {<config>|none}
-cache:dl2lat               6 # l2 data cache hit latency (in cycles)
-cache:il1       il1:512:32:1:l # l1 inst cache config, i.e., {<config>|dl1|dl2|none}
-cache:il1lat               1 # l1 instruction cache hit latency (in cycles)
-cache:il2                dl2 # l2 instruction cache config, i.e., {<config>|dl2|none}
-cache:il2lat               6 # l2 instruction cache hit latency (in cycles)
-cache:flush            false # flush caches on system calls
-cache:icompress        false # convert 64-bit inst addresses to 32-bit inst equivalents
-mem:lat         18 2 # memory access latency (<first_chunk> <inter_chunk>)
-mem:width                  8 # memory access bus width (in bytes)
-tlb:itlb        itlb:16:4096:4:l # instruction TLB config, i.e., {<config>|none}
-tlb:dtlb        dtlb:32:4096:4:l # data TLB config, i.e., {<config>|none}
-tlb:lat                   30 # inst/data TLB miss latency (in cycles)
-res:ialu                   4 # total number of integer ALU's available
-res:imult                  1 # total number of integer multiplier/dividers available
-res:memport                2 # total number of memory system ports available (to CPU)
-res:fpalu                  4 # total number of floating point ALU's available
-res:fpmult                 1 # total number of floating point multiplier/dividers available
# -pcstat              <null> # profile stat(s) against text addr's (mult uses ok)
-bugcompat              false # operate in backward-compatible bugs mode (for testing only)

  Pipetrace range arguments are formatted as follows:

    {{@|#}<start>}:{{@|#|+}<end>}

  Both ends of the range are optional, if neither are specified, the entire
  execution is traced.  Ranges that start with a `@' designate an address
  range to be traced, those that start with an `#' designate a cycle count
  range.  All other range values represent an instruction count range.  The
  second argument, if specified with a `+', indicates a value relative
  to the first argument, e.g., 1000:+100 == 1000:1100.  Program symbols may
  be used in all contexts.

    Examples:   -ptrace FOO.trc #0:#1000
                -ptrace BAR.trc @2000:
                -ptrace BLAH.trc :1500
                -ptrace UXXE.trc :
                -ptrace FOOBAR.trc @main:+278

  Branch predictor configuration examples for 2-level predictor:
    Configurations:   N, M, W, X
      N   # entries in first level (# of shift register(s))
      W   width of shift register(s)
      M   # entries in 2nd level (# of counters, or other FSM)
      X   (yes-1/no-0) xor history and address for 2nd level index
    Sample predictors:
      GAg     : 1, W, 2^W, 0
      GAp     : 1, W, M (M > 2^W), 0
      PAg     : N, W, 2^W, 0
      PAp     : N, W, M (M == 2^(N+W)), 0
      gshare  : 1, W, 2^W, 1
  Predictor `comb' combines a bimodal and a 2-level predictor.

  The cache config parameter <config> has the following format:

    <name>:<nsets>:<bsize>:<assoc>:<repl>

    <name>   - name of the cache being defined
    <nsets>  - number of sets in the cache
    <bsize>  - block size of the cache
    <assoc>  - associativity of the cache
    <repl>   - block replacement strategy, 'l'-LRU, 'f'-FIFO, 'r'-random

    Examples:   -cache:dl1 dl1:4096:32:1:l
                -dtlb dtlb:128:4096:32:r

  Cache levels can be unified by pointing a level of the instruction cache
  hierarchy at the data cache hiearchy using the "dl1" and "dl2" cache
  configuration arguments.  Most sensible combinations are supported, e.g.,

    A unified l2 cache (il2 is pointed at dl2):
      -cache:il1 il1:128:64:1:l -cache:il2 dl2
      -cache:dl1 dl1:256:32:1:l -cache:dl2 ul2:1024:64:2:l

    Or, a fully unified cache hierarchy (il1 pointed at dl1):
      -cache:il1 dl1
      -cache:dl1 ul1:256:32:1:l -cache:dl2 ul2:1024:64:2:l



sim: ** starting performance simulation **
Can't open tests.pl at ../inputs/perl.in line 462.
1..3
#1	:abcdef: eq :abcdef:
ok 1
#2	:abcdefxyz: eq :abcdefxyz:
ok 2
#3	:abcdef: eq :abcdef:
ok 3
1..36
ok 1
ok 2
ok 3
ok 4
ok 5
ok 6
ok 7
ok 8
ok 9
ok 10
ok 11
ok 12
ok 13
ok 14
ok 15
ok 16
ok 17
ok 18
ok 19
ok 20
ok 21
ok 22
ok 23
ok 24
ok 25
ok 26
ok 27
ok 28
ok 29
ok 30
ok 31
ok 32
ok 33
ok 34
ok 35
ok 36
1..34
ok 1
ok 2
ok 3
ok 4
ok 5
ok 6
ok 7
ok 8
ok 9
ok 10
ok 11
ok 12
ok 13
ok 14
ok 15
ok 16
ok 17
ok 18
ok 19
ok 20
ok 21
ok 22
ok 23
ok 24
ok 25
ok 26
ok 27
ok 28
ok 29
ok 30
ok 31
ok 32
ok 33
ok 34
1..4
ok 19
not ok 1 1abc
ok 2
ok 3
ok 4
1..4
ok 1
ok 2
ok 3
ok 4
1..6
ok 1
ok 2
ok 3
ok 4
not ok 5
ok 6
1..15
#2	:20: eq :value:
not ok 2
ok 3
#5	:20: eq :value:
not ok 5
ok 6
ok 7
#8	:value: eq :value:
ok 8
ok 9
ok 10
ok 11
ok 12
ok 13
ok 14
ok 15
1..3
ok 1
ok 2
ok 3
1..16
ok 1
ok 2
ok 3
ok 4
ok 5
ok 6
ok 7
ok 8
ok 9
ok 10
ok 11
ok 12
ok 13
ok 14
ok 15
ok 16
1..6
ok 1
ok 2
ok 3
ok 4
ok 5
ok 6
1..8
ok 1
ok 2
ok 3
ok 4
ok 5
ok 6
ok 7

sim: ** simulation statistics **
sim_num_insn               21950523 # total number of instructions committed
sim_num_refs                7998467 # total number of loads and stores committed
sim_num_loads               4735615 # total number of loads committed
sim_num_stores         3262852.0000 # total number of stores committed
sim_num_branches            4377016 # total number of branches committed
sim_elapsed_time                  5 # total simulation time in seconds
sim_inst_rate          4390104.6000 # simulation speed (in insts/sec)
sim_total_insn             27805586 # total number of instructions executed
sim_total_refs              9819557 # total number of loads and stores executed
sim_total_loads             5930799 # total number of loads executed
sim_total_stores       3888758.0000 # total number of stores executed
sim_total_branches          5674202 # total number of branches executed
sim_cycle                  27795686 # total simulation time in cycles
sim_IPC                      0.7897 # instructions per cycle
sim_CPI                      1.2663 # cycles per instruction
sim_exec_BW                  1.0004 # total instructions (mis-spec + committed) per cycle
sim_IPB                      5.0150 # instruction per branch
IFQ_count                  38336828 # cumulative IFQ occupancy
IFQ_fcount                  7537252 # cumulative IFQ full count
ifq_occupancy                1.3792 # avg IFQ occupancy (insn's)
ifq_rate                     1.0004 # avg IFQ dispatch rate (insn/cycle)
ifq_latency                  1.3787 # avg IFQ occupant latency (cycle's)
ifq_full                     0.2712 # fraction of time (cycle's) IFQ was full
RUU_count                 139933623 # cumulative RUU occupancy
RUU_fcount                  3014299 # cumulative RUU full count
ruu_occupancy                5.0344 # avg RUU occupancy (insn's)
ruu_rate                     1.0004 # avg RUU dispatch rate (insn/cycle)
ruu_latency                  5.0326 # avg RUU occupant latency (cycle's)
ruu_full                     0.1084 # fraction of time (cycle's) RUU was full
LSQ_count                  52095868 # cumulative LSQ occupancy
LSQ_fcount                  1149277 # cumulative LSQ full count
lsq_occupancy                1.8742 # avg LSQ occupancy (insn's)
lsq_rate                     1.0004 # avg LSQ dispatch rate (insn/cycle)
lsq_latency                  1.8736 # avg LSQ occupant latency (cycle's)
lsq_full                     0.0413 # fraction of time (cycle's) LSQ was full
sim_slip                  196571563 # total number of slip cycles
avg_sim_slip                 8.9552 # the average slip between issue and retirement
bpred_bimod.lookups         6068021 # total number of bpred lookups
bpred_bimod.updates         4377016 # total number of updates
bpred_bimod.addr_hits       3194658 # total number of address-predicted hits
bpred_bimod.dir_hits        3403591 # total number of direction-predicted hits (includes addr-hits)
bpred_bimod.misses           973425 # total number of misses
bpred_bimod.jr_hits          204986 # total number of address-predicted hits for JR's
bpred_bimod.jr_seen          403513 # total number of JR's seen
bpred_bimod.jr_non_ras_hits.PP       204986 # total number of address-predicted hits for non-RAS JR's
bpred_bimod.jr_non_ras_seen.PP       403513 # total number of non-RAS JR's seen
bpred_bimod.bpred_addr_rate    0.7299 # branch address-prediction rate (i.e., addr-hits/updates)
bpred_bimod.bpred_dir_rate    0.7776 # branch direction-prediction rate (i.e., all-hits/updates)
bpred_bimod.bpred_jr_rate    0.5080 # JR address-prediction rate (i.e., JR addr-hits/JRs seen)
bpred_bimod.bpred_jr_non_ras_rate.PP    0.5080 # non-RAS JR addr-pred rate (ie, non-RAS JR hits/JRs seen)
bpred_bimod.retstack_pushes       501981 # total number of address pushed onto ret-addr stack
bpred_bimod.retstack_pops            0 # total number of address popped off of ret-addr stack
bpred_bimod.used_ras.PP            0 # total number of RAS predictions used
bpred_bimod.ras_hits.PP            0 # total number of RAS hits
bpred_bimod.ras_rate.PP <error: divide by zero> # RAS prediction rate (i.e., RAS hits/used RAS)
il1.accesses               31804519 # total number of accesses
il1.hits                   29504212 # total number of hits
il1.misses                  2300307 # total number of misses
il1.replacements            2299795 # total number of replacements
il1.writebacks                    0 # total number of writebacks
il1.invalidations                 0 # total number of invalidations
il1.miss_rate                0.0723 # miss rate (i.e., misses/ref)
il1.repl_rate                0.0723 # replacement rate (i.e., repls/ref)
il1.wb_rate                  0.0000 # writeback rate (i.e., wrbks/ref)
il1.inv_rate                 0.0000 # invalidation rate (i.e., invs/ref)
dl1.accesses                8456121 # total number of accesses
dl1.hits                    8319149 # total number of hits
dl1.misses                   136972 # total number of misses
dl1.replacements             136460 # total number of replacements
dl1.writebacks                65762 # total number of writebacks
dl1.invalidations                 0 # total number of invalidations
dl1.miss_rate                0.0162 # miss rate (i.e., misses/ref)
dl1.repl_rate                0.0161 # replacement rate (i.e., repls/ref)
dl1.wb_rate                  0.0078 # writeback rate (i.e., wrbks/ref)
dl1.inv_rate                 0.0000 # invalidation rate (i.e., invs/ref)
ul2.accesses                2503041 # total number of accesses
ul2.hits                    2463399 # total number of hits
ul2.misses                    39642 # total number of misses
ul2.replacements              35546 # total number of replacements
ul2.writebacks                19283 # total number of writebacks
ul2.invalidations                 0 # total number of invalidations
ul2.miss_rate                0.0158 # miss rate (i.e., misses/ref)
ul2.repl_rate                0.0142 # replacement rate (i.e., repls/ref)
ul2.wb_rate                  0.0077 # writeback rate (i.e., wrbks/ref)
ul2.inv_rate                 0.0000 # invalidation rate (i.e., invs/ref)
itlb.accesses              31804519 # total number of accesses
itlb.hits                  31801505 # total number of hits
itlb.misses                    3014 # total number of misses
itlb.replacements              2950 # total number of replacements
itlb.writebacks                   0 # total number of writebacks
itlb.invalidations                0 # total number of invalidations
itlb.miss_rate               0.0001 # miss rate (i.e., misses/ref)
itlb.repl_rate               0.0001 # replacement rate (i.e., repls/ref)
itlb.wb_rate                 0.0000 # writeback rate (i.e., wrbks/ref)
itlb.inv_rate                0.0000 # invalidation rate (i.e., invs/ref)
dtlb.accesses               8498022 # total number of accesses
dtlb.hits                   8497390 # total number of hits
dtlb.misses                     632 # total number of misses
dtlb.replacements               504 # total number of replacements
dtlb.writebacks                   0 # total number of writebacks
dtlb.invalidations                0 # total number of invalidations
dtlb.miss_rate               0.0001 # miss rate (i.e., misses/ref)
dtlb.repl_rate               0.0001 # replacement rate (i.e., repls/ref)
dtlb.wb_rate                 0.0000 # writeback rate (i.e., wrbks/ref)
dtlb.inv_rate                0.0000 # invalidation rate (i.e., invs/ref)
sim_invalid_addrs                 0 # total non-speculative bogus addresses seen (debug var)
ld_text_base             0x00400000 # program text (code) segment base
ld_text_size                 535584 # program text (code) size in bytes
ld_data_base             0x10000000 # program initialized data segment base
ld_data_size                  77204 # program init'ed `.data' and uninit'ed `.bss' size in bytes
ld_stack_base            0x7fffc000 # program stack segment base (highest address in stack)
ld_stack_size                 16384 # program initial stack size
ld_prog_entry            0x00400140 # program entry point (initial PC)
ld_environ_base          0x7fff8000 # program environment base address address
ld_target_big_endian              0 # target executable endian-ness, non-zero if big endian
mem.page_count                  422 # total number of pages allocated
mem.page_mem                  1688k # total size of memory pages allocated
mem.ptab_misses                1897 # total first level page table misses
mem.ptab_accesses         231287821 # total page table accesses
mem.ptab_miss_rate           0.0000 # first level page table miss rate

===== perl bimod 64 =====
sim-outorder: SimpleScalar/PISA Tool Set version 3.0 of March, 2023.
Copyright (c) 1994-2003 by Todd M. Austin, Ph.D. and SimpleScalar, LLC.
All Rights Reserved. This version of SimpleScalar is licensed for academic
non-commercial use.  No portion of this work may be used by any commercial
entity, or for any commercial purpose, without the prior written permission
of SimpleScalar, LLC (info@simplescalar.com).

sim: command line: ../simplesim-3.0/sim-outorder -bpred bimod -bpred:bimod 64 perl.ss ../inputs/perl.in 

sim: simulation started @ Fri Apr 17 01:13:44 2026, options follow:

sim-outorder: This simulator implements a very detailed out-of-order issue
superscalar processor with a two-level memory system and speculative
execution support.  This simulator is a performance simulator, tracking the
latency of all pipeline operations.

# -config                     # load configuration from a file
# -dumpconfig                 # dump configuration to a file
# -h                    false # print help message    
# -v                    false # verbose operation     
# -d                    false # enable debug message  
# -i                    false # start in Dlite debugger
-seed                       1 # random number generator seed (0 for timer seed)
# -q                    false # initialize and terminate immediately
# -chkpt               <null> # restore EIO trace execution from <fname>
# -redir:sim           <null> # redirect simulator output to file (non-interactive only)
# -redir:prog          <null> # redirect simulated program output to file
-nice                       0 # simulator scheduling priority
-max:inst                   0 # maximum number of inst's to execute
-fastfwd                    0 # number of insts skipped before timing starts
# -ptrace              <null> # generate pipetrace, i.e., <fname|stdout|stderr> <range>
-fetch:ifqsize              4 # instruction fetch queue size (in insts)
-fetch:mplat                3 # extra branch mis-prediction latency
-fetch:speed                1 # speed of front-end of machine relative to execution core
-bpred                  bimod # branch predictor type {nottaken|taken|perfect|bimod|2lev|comb|opcodecomb}
-bpred:bimod     64 # bimodal predictor config (<table size>)
-bpred:opcode    2048 # opcode predictor config (<table_size>)
-bpred:2lev      1 1024 8 0 # 2-level predictor config (<l1size> <l2size> <hist_size> <xor>)
-bpred:comb      1024 # combining predictor config (<meta_table_size>)
-bpred:opcodecomb 1024 # opcode hybrid combining predictor config (<meta_table_size>)
-bpred:ras                  8 # return address stack size (0 for no return stack)
-bpred:btb       512 4 # BTB config (<num_sets> <associativity>)
# -bpred:spec_update       <null> # speculative predictors update in {ID|WB} (default non-spec)
-decode:width               4 # instruction decode B/W (insts/cycle)
-issue:width                4 # instruction issue B/W (insts/cycle)
-issue:inorder          false # run pipeline with in-order issue
-issue:wrongpath         true # issue instructions down wrong execution paths
-commit:width               4 # instruction commit B/W (insts/cycle)
-ruu:size                  16 # register update unit (RUU) size
-lsq:size                   8 # load/store queue (LSQ) size
-cache:dl1       dl1:128:32:4:l # l1 data cache config, i.e., {<config>|none}
-cache:dl1lat               1 # l1 data cache hit latency (in cycles)
-cache:dl2       ul2:1024:64:4:l # l2 data cache config, i.e., {<config>|none}
-cache:dl2lat               6 # l2 data cache hit latency (in cycles)
-cache:il1       il1:512:32:1:l # l1 inst cache config, i.e., {<config>|dl1|dl2|none}
-cache:il1lat               1 # l1 instruction cache hit latency (in cycles)
-cache:il2                dl2 # l2 instruction cache config, i.e., {<config>|dl2|none}
-cache:il2lat               6 # l2 instruction cache hit latency (in cycles)
-cache:flush            false # flush caches on system calls
-cache:icompress        false # convert 64-bit inst addresses to 32-bit inst equivalents
-mem:lat         18 2 # memory access latency (<first_chunk> <inter_chunk>)
-mem:width                  8 # memory access bus width (in bytes)
-tlb:itlb        itlb:16:4096:4:l # instruction TLB config, i.e., {<config>|none}
-tlb:dtlb        dtlb:32:4096:4:l # data TLB config, i.e., {<config>|none}
-tlb:lat                   30 # inst/data TLB miss latency (in cycles)
-res:ialu                   4 # total number of integer ALU's available
-res:imult                  1 # total number of integer multiplier/dividers available
-res:memport                2 # total number of memory system ports available (to CPU)
-res:fpalu                  4 # total number of floating point ALU's available
-res:fpmult                 1 # total number of floating point multiplier/dividers available
# -pcstat              <null> # profile stat(s) against text addr's (mult uses ok)
-bugcompat              false # operate in backward-compatible bugs mode (for testing only)

  Pipetrace range arguments are formatted as follows:

    {{@|#}<start>}:{{@|#|+}<end>}

  Both ends of the range are optional, if neither are specified, the entire
  execution is traced.  Ranges that start with a `@' designate an address
  range to be traced, those that start with an `#' designate a cycle count
  range.  All other range values represent an instruction count range.  The
  second argument, if specified with a `+', indicates a value relative
  to the first argument, e.g., 1000:+100 == 1000:1100.  Program symbols may
  be used in all contexts.

    Examples:   -ptrace FOO.trc #0:#1000
                -ptrace BAR.trc @2000:
                -ptrace BLAH.trc :1500
                -ptrace UXXE.trc :
                -ptrace FOOBAR.trc @main:+278

  Branch predictor configuration examples for 2-level predictor:
    Configurations:   N, M, W, X
      N   # entries in first level (# of shift register(s))
      W   width of shift register(s)
      M   # entries in 2nd level (# of counters, or other FSM)
      X   (yes-1/no-0) xor history and address for 2nd level index
    Sample predictors:
      GAg     : 1, W, 2^W, 0
      GAp     : 1, W, M (M > 2^W), 0
      PAg     : N, W, 2^W, 0
      PAp     : N, W, M (M == 2^(N+W)), 0
      gshare  : 1, W, 2^W, 1
  Predictor `comb' combines a bimodal and a 2-level predictor.

  The cache config parameter <config> has the following format:

    <name>:<nsets>:<bsize>:<assoc>:<repl>

    <name>   - name of the cache being defined
    <nsets>  - number of sets in the cache
    <bsize>  - block size of the cache
    <assoc>  - associativity of the cache
    <repl>   - block replacement strategy, 'l'-LRU, 'f'-FIFO, 'r'-random

    Examples:   -cache:dl1 dl1:4096:32:1:l
                -dtlb dtlb:128:4096:32:r

  Cache levels can be unified by pointing a level of the instruction cache
  hierarchy at the data cache hiearchy using the "dl1" and "dl2" cache
  configuration arguments.  Most sensible combinations are supported, e.g.,

    A unified l2 cache (il2 is pointed at dl2):
      -cache:il1 il1:128:64:1:l -cache:il2 dl2
      -cache:dl1 dl1:256:32:1:l -cache:dl2 ul2:1024:64:2:l

    Or, a fully unified cache hierarchy (il1 pointed at dl1):
      -cache:il1 dl1
      -cache:dl1 ul1:256:32:1:l -cache:dl2 ul2:1024:64:2:l



sim: ** starting performance simulation **
Can't open tests.pl at ../inputs/perl.in line 462.
1..3
#1	:abcdef: eq :abcdef:
ok 1
#2	:abcdefxyz: eq :abcdefxyz:
ok 2
#3	:abcdef: eq :abcdef:
ok 3
1..36
ok 1
ok 2
ok 3
ok 4
ok 5
ok 6
ok 7
ok 8
ok 9
ok 10
ok 11
ok 12
ok 13
ok 14
ok 15
ok 16
ok 17
ok 18
ok 19
ok 20
ok 21
ok 22
ok 23
ok 24
ok 25
ok 26
ok 27
ok 28
ok 29
ok 30
ok 31
ok 32
ok 33
ok 34
ok 35
ok 36
1..34
ok 1
ok 2
ok 3
ok 4
ok 5
ok 6
ok 7
ok 8
ok 9
ok 10
ok 11
ok 12
ok 13
ok 14
ok 15
ok 16
ok 17
ok 18
ok 19
ok 20
ok 21
ok 22
ok 23
ok 24
ok 25
ok 26
ok 27
ok 28
ok 29
ok 30
ok 31
ok 32
ok 33
ok 34
1..4
ok 19
not ok 1 1abc
ok 2
ok 3
ok 4
1..4
ok 1
ok 2
ok 3
ok 4
1..6
ok 1
ok 2
ok 3
ok 4
not ok 5
ok 6
1..15
#2	:20: eq :value:
not ok 2
ok 3
#5	:20: eq :value:
not ok 5
ok 6
ok 7
#8	:value: eq :value:
ok 8
ok 9
ok 10
ok 11
ok 12
ok 13
ok 14
ok 15
1..3
ok 1
ok 2
ok 3
1..16
ok 1
ok 2
ok 3
ok 4
ok 5
ok 6
ok 7
ok 8
ok 9
ok 10
ok 11
ok 12
ok 13
ok 14
ok 15
ok 16
1..6
ok 1
ok 2
ok 3
ok 4
ok 5
ok 6
1..8
ok 1
ok 2
ok 3
ok 4
ok 5
ok 6
ok 7

sim: ** simulation statistics **
sim_num_insn               21950523 # total number of instructions committed
sim_num_refs                7998467 # total number of loads and stores committed
sim_num_loads               4735615 # total number of loads committed
sim_num_stores         3262852.0000 # total number of stores committed
sim_num_branches            4377016 # total number of branches committed
sim_elapsed_time                  5 # total simulation time in seconds
sim_inst_rate          4390104.6000 # simulation speed (in insts/sec)
sim_total_insn             27187250 # total number of instructions executed
sim_total_refs              9562643 # total number of loads and stores executed
sim_total_loads             5784734 # total number of loads executed
sim_total_stores       3777909.0000 # total number of stores executed
sim_total_branches          5537348 # total number of branches executed
sim_cycle                  27022352 # total simulation time in cycles
sim_IPC                      0.8123 # instructions per cycle
sim_CPI                      1.2311 # cycles per instruction
sim_exec_BW                  1.0061 # total instructions (mis-spec + committed) per cycle
sim_IPB                      5.0150 # instruction per branch
IFQ_count                  37655466 # cumulative IFQ occupancy
IFQ_fcount                  7442982 # cumulative IFQ full count
ifq_occupancy                1.3935 # avg IFQ occupancy (insn's)
ifq_rate                     1.0061 # avg IFQ dispatch rate (insn/cycle)
ifq_latency                  1.3850 # avg IFQ occupant latency (cycle's)
ifq_full                     0.2754 # fraction of time (cycle's) IFQ was full
RUU_count                 139221178 # cumulative RUU occupancy
RUU_fcount                  3084860 # cumulative RUU full count
ruu_occupancy                5.1521 # avg RUU occupancy (insn's)
ruu_rate                     1.0061 # avg RUU dispatch rate (insn/cycle)
ruu_latency                  5.1208 # avg RUU occupant latency (cycle's)
ruu_full                     0.1142 # fraction of time (cycle's) RUU was full
LSQ_count                  51683468 # cumulative LSQ occupancy
LSQ_fcount                  1134083 # cumulative LSQ full count
lsq_occupancy                1.9126 # avg LSQ occupancy (insn's)
lsq_rate                     1.0061 # avg LSQ dispatch rate (insn/cycle)
lsq_latency                  1.9010 # avg LSQ occupant latency (cycle's)
lsq_full                     0.0420 # fraction of time (cycle's) LSQ was full
sim_slip                  197478850 # total number of slip cycles
avg_sim_slip                 8.9965 # the average slip between issue and retirement
bpred_bimod.lookups         5858097 # total number of bpred lookups
bpred_bimod.updates         4377016 # total number of updates
bpred_bimod.addr_hits       3348386 # total number of address-predicted hits
bpred_bimod.dir_hits        3557113 # total number of direction-predicted hits (includes addr-hits)
bpred_bimod.misses           819903 # total number of misses
bpred_bimod.jr_hits          204986 # total number of address-predicted hits for JR's
bpred_bimod.jr_seen          403513 # total number of JR's seen
bpred_bimod.jr_non_ras_hits.PP       204986 # total number of address-predicted hits for non-RAS JR's
bpred_bimod.jr_non_ras_seen.PP       403513 # total number of non-RAS JR's seen
bpred_bimod.bpred_addr_rate    0.7650 # branch address-prediction rate (i.e., addr-hits/updates)
bpred_bimod.bpred_dir_rate    0.8127 # branch direction-prediction rate (i.e., all-hits/updates)
bpred_bimod.bpred_jr_rate    0.5080 # JR address-prediction rate (i.e., JR addr-hits/JRs seen)
bpred_bimod.bpred_jr_non_ras_rate.PP    0.5080 # non-RAS JR addr-pred rate (ie, non-RAS JR hits/JRs seen)
bpred_bimod.retstack_pushes       458774 # total number of address pushed onto ret-addr stack
bpred_bimod.retstack_pops            0 # total number of address popped off of ret-addr stack
bpred_bimod.used_ras.PP            0 # total number of RAS predictions used
bpred_bimod.ras_hits.PP            0 # total number of RAS hits
bpred_bimod.ras_rate.PP <error: divide by zero> # RAS prediction rate (i.e., RAS hits/used RAS)
il1.accesses               31041588 # total number of accesses
il1.hits                   28757417 # total number of hits
il1.misses                  2284171 # total number of misses
il1.replacements            2283659 # total number of replacements
il1.writebacks                    0 # total number of writebacks
il1.invalidations                 0 # total number of invalidations
il1.miss_rate                0.0736 # miss rate (i.e., misses/ref)
il1.repl_rate                0.0736 # replacement rate (i.e., repls/ref)
il1.wb_rate                  0.0000 # writeback rate (i.e., wrbks/ref)
il1.inv_rate                 0.0000 # invalidation rate (i.e., invs/ref)
dl1.accesses                8429962 # total number of accesses
dl1.hits                    8292859 # total number of hits
dl1.misses                   137103 # total number of misses
dl1.replacements             136591 # total number of replacements
dl1.writebacks                65774 # total number of writebacks
dl1.invalidations                 0 # total number of invalidations
dl1.miss_rate                0.0163 # miss rate (i.e., misses/ref)
dl1.repl_rate                0.0162 # replacement rate (i.e., repls/ref)
dl1.wb_rate                  0.0078 # writeback rate (i.e., wrbks/ref)
dl1.inv_rate                 0.0000 # invalidation rate (i.e., invs/ref)
ul2.accesses                2487048 # total number of accesses
ul2.hits                    2447369 # total number of hits
ul2.misses                    39679 # total number of misses
ul2.replacements              35583 # total number of replacements
ul2.writebacks                19284 # total number of writebacks
ul2.invalidations                 0 # total number of invalidations
ul2.miss_rate                0.0160 # miss rate (i.e., misses/ref)
ul2.repl_rate                0.0143 # replacement rate (i.e., repls/ref)
ul2.wb_rate                  0.0078 # writeback rate (i.e., wrbks/ref)
ul2.inv_rate                 0.0000 # invalidation rate (i.e., invs/ref)
itlb.accesses              31041588 # total number of accesses
itlb.hits                  31038210 # total number of hits
itlb.misses                    3378 # total number of misses
itlb.replacements              3314 # total number of replacements
itlb.writebacks                   0 # total number of writebacks
itlb.invalidations                0 # total number of invalidations
itlb.miss_rate               0.0001 # miss rate (i.e., misses/ref)
itlb.repl_rate               0.0001 # replacement rate (i.e., repls/ref)
itlb.wb_rate                 0.0000 # writeback rate (i.e., wrbks/ref)
itlb.inv_rate                0.0000 # invalidation rate (i.e., invs/ref)
dtlb.accesses               8471718 # total number of accesses
dtlb.hits                   8471085 # total number of hits
dtlb.misses                     633 # total number of misses
dtlb.replacements               505 # total number of replacements
dtlb.writebacks                   0 # total number of writebacks
dtlb.invalidations                0 # total number of invalidations
dtlb.miss_rate               0.0001 # miss rate (i.e., misses/ref)
dtlb.repl_rate               0.0001 # replacement rate (i.e., repls/ref)
dtlb.wb_rate                 0.0000 # writeback rate (i.e., wrbks/ref)
dtlb.inv_rate                0.0000 # invalidation rate (i.e., invs/ref)
sim_invalid_addrs                 0 # total non-speculative bogus addresses seen (debug var)
ld_text_base             0x00400000 # program text (code) segment base
ld_text_size                 535584 # program text (code) size in bytes
ld_data_base             0x10000000 # program initialized data segment base
ld_data_size                  77204 # program init'ed `.data' and uninit'ed `.bss' size in bytes
ld_stack_base            0x7fffc000 # program stack segment base (highest address in stack)
ld_stack_size                 16384 # program initial stack size
ld_prog_entry            0x00400140 # program entry point (initial PC)
ld_environ_base          0x7fff8000 # program environment base address address
ld_target_big_endian              0 # target executable endian-ness, non-zero if big endian
mem.page_count                  422 # total number of pages allocated
mem.page_mem                  1688k # total size of memory pages allocated
mem.ptab_misses                2454 # total first level page table misses
mem.ptab_accesses         227202606 # total page table accesses
mem.ptab_miss_rate           0.0000 # first level page table miss rate

===== perl bimod 128 =====
sim-outorder: SimpleScalar/PISA Tool Set version 3.0 of March, 2023.
Copyright (c) 1994-2003 by Todd M. Austin, Ph.D. and SimpleScalar, LLC.
All Rights Reserved. This version of SimpleScalar is licensed for academic
non-commercial use.  No portion of this work may be used by any commercial
entity, or for any commercial purpose, without the prior written permission
of SimpleScalar, LLC (info@simplescalar.com).

sim: command line: ../simplesim-3.0/sim-outorder -bpred bimod -bpred:bimod 128 perl.ss ../inputs/perl.in 

sim: simulation started @ Fri Apr 17 01:13:49 2026, options follow:

sim-outorder: This simulator implements a very detailed out-of-order issue
superscalar processor with a two-level memory system and speculative
execution support.  This simulator is a performance simulator, tracking the
latency of all pipeline operations.

# -config                     # load configuration from a file
# -dumpconfig                 # dump configuration to a file
# -h                    false # print help message    
# -v                    false # verbose operation     
# -d                    false # enable debug message  
# -i                    false # start in Dlite debugger
-seed                       1 # random number generator seed (0 for timer seed)
# -q                    false # initialize and terminate immediately
# -chkpt               <null> # restore EIO trace execution from <fname>
# -redir:sim           <null> # redirect simulator output to file (non-interactive only)
# -redir:prog          <null> # redirect simulated program output to file
-nice                       0 # simulator scheduling priority
-max:inst                   0 # maximum number of inst's to execute
-fastfwd                    0 # number of insts skipped before timing starts
# -ptrace              <null> # generate pipetrace, i.e., <fname|stdout|stderr> <range>
-fetch:ifqsize              4 # instruction fetch queue size (in insts)
-fetch:mplat                3 # extra branch mis-prediction latency
-fetch:speed                1 # speed of front-end of machine relative to execution core
-bpred                  bimod # branch predictor type {nottaken|taken|perfect|bimod|2lev|comb|opcodecomb}
-bpred:bimod     128 # bimodal predictor config (<table size>)
-bpred:opcode    2048 # opcode predictor config (<table_size>)
-bpred:2lev      1 1024 8 0 # 2-level predictor config (<l1size> <l2size> <hist_size> <xor>)
-bpred:comb      1024 # combining predictor config (<meta_table_size>)
-bpred:opcodecomb 1024 # opcode hybrid combining predictor config (<meta_table_size>)
-bpred:ras                  8 # return address stack size (0 for no return stack)
-bpred:btb       512 4 # BTB config (<num_sets> <associativity>)
# -bpred:spec_update       <null> # speculative predictors update in {ID|WB} (default non-spec)
-decode:width               4 # instruction decode B/W (insts/cycle)
-issue:width                4 # instruction issue B/W (insts/cycle)
-issue:inorder          false # run pipeline with in-order issue
-issue:wrongpath         true # issue instructions down wrong execution paths
-commit:width               4 # instruction commit B/W (insts/cycle)
-ruu:size                  16 # register update unit (RUU) size
-lsq:size                   8 # load/store queue (LSQ) size
-cache:dl1       dl1:128:32:4:l # l1 data cache config, i.e., {<config>|none}
-cache:dl1lat               1 # l1 data cache hit latency (in cycles)
-cache:dl2       ul2:1024:64:4:l # l2 data cache config, i.e., {<config>|none}
-cache:dl2lat               6 # l2 data cache hit latency (in cycles)
-cache:il1       il1:512:32:1:l # l1 inst cache config, i.e., {<config>|dl1|dl2|none}
-cache:il1lat               1 # l1 instruction cache hit latency (in cycles)
-cache:il2                dl2 # l2 instruction cache config, i.e., {<config>|dl2|none}
-cache:il2lat               6 # l2 instruction cache hit latency (in cycles)
-cache:flush            false # flush caches on system calls
-cache:icompress        false # convert 64-bit inst addresses to 32-bit inst equivalents
-mem:lat         18 2 # memory access latency (<first_chunk> <inter_chunk>)
-mem:width                  8 # memory access bus width (in bytes)
-tlb:itlb        itlb:16:4096:4:l # instruction TLB config, i.e., {<config>|none}
-tlb:dtlb        dtlb:32:4096:4:l # data TLB config, i.e., {<config>|none}
-tlb:lat                   30 # inst/data TLB miss latency (in cycles)
-res:ialu                   4 # total number of integer ALU's available
-res:imult                  1 # total number of integer multiplier/dividers available
-res:memport                2 # total number of memory system ports available (to CPU)
-res:fpalu                  4 # total number of floating point ALU's available
-res:fpmult                 1 # total number of floating point multiplier/dividers available
# -pcstat              <null> # profile stat(s) against text addr's (mult uses ok)
-bugcompat              false # operate in backward-compatible bugs mode (for testing only)

  Pipetrace range arguments are formatted as follows:

    {{@|#}<start>}:{{@|#|+}<end>}

  Both ends of the range are optional, if neither are specified, the entire
  execution is traced.  Ranges that start with a `@' designate an address
  range to be traced, those that start with an `#' designate a cycle count
  range.  All other range values represent an instruction count range.  The
  second argument, if specified with a `+', indicates a value relative
  to the first argument, e.g., 1000:+100 == 1000:1100.  Program symbols may
  be used in all contexts.

    Examples:   -ptrace FOO.trc #0:#1000
                -ptrace BAR.trc @2000:
                -ptrace BLAH.trc :1500
                -ptrace UXXE.trc :
                -ptrace FOOBAR.trc @main:+278

  Branch predictor configuration examples for 2-level predictor:
    Configurations:   N, M, W, X
      N   # entries in first level (# of shift register(s))
      W   width of shift register(s)
      M   # entries in 2nd level (# of counters, or other FSM)
      X   (yes-1/no-0) xor history and address for 2nd level index
    Sample predictors:
      GAg     : 1, W, 2^W, 0
      GAp     : 1, W, M (M > 2^W), 0
      PAg     : N, W, 2^W, 0
      PAp     : N, W, M (M == 2^(N+W)), 0
      gshare  : 1, W, 2^W, 1
  Predictor `comb' combines a bimodal and a 2-level predictor.

  The cache config parameter <config> has the following format:

    <name>:<nsets>:<bsize>:<assoc>:<repl>

    <name>   - name of the cache being defined
    <nsets>  - number of sets in the cache
    <bsize>  - block size of the cache
    <assoc>  - associativity of the cache
    <repl>   - block replacement strategy, 'l'-LRU, 'f'-FIFO, 'r'-random

    Examples:   -cache:dl1 dl1:4096:32:1:l
                -dtlb dtlb:128:4096:32:r

  Cache levels can be unified by pointing a level of the instruction cache
  hierarchy at the data cache hiearchy using the "dl1" and "dl2" cache
  configuration arguments.  Most sensible combinations are supported, e.g.,

    A unified l2 cache (il2 is pointed at dl2):
      -cache:il1 il1:128:64:1:l -cache:il2 dl2
      -cache:dl1 dl1:256:32:1:l -cache:dl2 ul2:1024:64:2:l

    Or, a fully unified cache hierarchy (il1 pointed at dl1):
      -cache:il1 dl1
      -cache:dl1 ul1:256:32:1:l -cache:dl2 ul2:1024:64:2:l



sim: ** starting performance simulation **
Can't open tests.pl at ../inputs/perl.in line 462.
1..3
#1	:abcdef: eq :abcdef:
ok 1
#2	:abcdefxyz: eq :abcdefxyz:
ok 2
#3	:abcdef: eq :abcdef:
ok 3
1..36
ok 1
ok 2
ok 3
ok 4
ok 5
ok 6
ok 7
ok 8
ok 9
ok 10
ok 11
ok 12
ok 13
ok 14
ok 15
ok 16
ok 17
ok 18
ok 19
ok 20
ok 21
ok 22
ok 23
ok 24
ok 25
ok 26
ok 27
ok 28
ok 29
ok 30
ok 31
ok 32
ok 33
ok 34
ok 35
ok 36
1..34
ok 1
ok 2
ok 3
ok 4
ok 5
ok 6
ok 7
ok 8
ok 9
ok 10
ok 11
ok 12
ok 13
ok 14
ok 15
ok 16
ok 17
ok 18
ok 19
ok 20
ok 21
ok 22
ok 23
ok 24
ok 25
ok 26
ok 27
ok 28
ok 29
ok 30
ok 31
ok 32
ok 33
ok 34
1..4
ok 19
not ok 1 1abc
ok 2
ok 3
ok 4
1..4
ok 1
ok 2
ok 3
ok 4
1..6
ok 1
ok 2
ok 3
ok 4
not ok 5
ok 6
1..15
#2	:20: eq :value:
not ok 2
ok 3
#5	:20: eq :value:
not ok 5
ok 6
ok 7
#8	:value: eq :value:
ok 8
ok 9
ok 10
ok 11
ok 12
ok 13
ok 14
ok 15
1..3
ok 1
ok 2
ok 3
1..16
ok 1
ok 2
ok 3
ok 4
ok 5
ok 6
ok 7
ok 8
ok 9
ok 10
ok 11
ok 12
ok 13
ok 14
ok 15
ok 16
1..6
ok 1
ok 2
ok 3
ok 4
ok 5
ok 6
1..8
ok 1
ok 2
ok 3
ok 4
ok 5
ok 6
ok 7

sim: ** simulation statistics **
sim_num_insn               21950523 # total number of instructions committed
sim_num_refs                7998467 # total number of loads and stores committed
sim_num_loads               4735615 # total number of loads committed
sim_num_stores         3262852.0000 # total number of stores committed
sim_num_branches            4377016 # total number of branches committed
sim_elapsed_time                  6 # total simulation time in seconds
sim_inst_rate          3658420.5000 # simulation speed (in insts/sec)
sim_total_insn             26672932 # total number of instructions executed
sim_total_refs              9399260 # total number of loads and stores executed
sim_total_loads             5657886 # total number of loads executed
sim_total_stores       3741374.0000 # total number of stores executed
sim_total_branches          5421480 # total number of branches executed
sim_cycle                  26316483 # total simulation time in cycles
sim_IPC                      0.8341 # instructions per cycle
sim_CPI                      1.1989 # cycles per instruction
sim_exec_BW                  1.0135 # total instructions (mis-spec + committed) per cycle
sim_IPB                      5.0150 # instruction per branch
IFQ_count                  37446442 # cumulative IFQ occupancy
IFQ_fcount                  7493912 # cumulative IFQ full count
ifq_occupancy                1.4229 # avg IFQ occupancy (insn's)
ifq_rate                     1.0135 # avg IFQ dispatch rate (insn/cycle)
ifq_latency                  1.4039 # avg IFQ occupant latency (cycle's)
ifq_full                     0.2848 # fraction of time (cycle's) IFQ was full
RUU_count                 138713620 # cumulative RUU occupancy
RUU_fcount                  3288846 # cumulative RUU full count
ruu_occupancy                5.2710 # avg RUU occupancy (insn's)
ruu_rate                     1.0135 # avg RUU dispatch rate (insn/cycle)
ruu_latency                  5.2005 # avg RUU occupant latency (cycle's)
ruu_full                     0.1250 # fraction of time (cycle's) RUU was full
LSQ_count                  51526071 # cumulative LSQ occupancy
LSQ_fcount                  1149912 # cumulative LSQ full count
lsq_occupancy                1.9579 # avg LSQ occupancy (insn's)
lsq_rate                     1.0135 # avg LSQ dispatch rate (insn/cycle)
lsq_latency                  1.9318 # avg LSQ occupant latency (cycle's)
lsq_full                     0.0437 # fraction of time (cycle's) LSQ was full
sim_slip                  200049289 # total number of slip cycles
avg_sim_slip                 9.1136 # the average slip between issue and retirement
bpred_bimod.lookups         5723885 # total number of bpred lookups
bpred_bimod.updates         4377016 # total number of updates
bpred_bimod.addr_hits       3465878 # total number of address-predicted hits
bpred_bimod.dir_hits        3674697 # total number of direction-predicted hits (includes addr-hits)
bpred_bimod.misses           702319 # total number of misses
bpred_bimod.jr_hits          204986 # total number of address-predicted hits for JR's
bpred_bimod.jr_seen          403513 # total number of JR's seen
[...]
ul2.wb_rate                  0.0075 # writeback rate (i.e., wrbks/ref)
ul2.inv_rate                 0.0000 # invalidation rate (i.e., invs/ref)
itlb.accesses              32694347 # total number of accesses
itlb.hits                  32690059 # total number of hits
itlb.misses                    4288 # total number of misses
itlb.replacements              4224 # total number of replacements
itlb.writebacks                   0 # total number of writebacks
itlb.invalidations                0 # total number of invalidations
itlb.miss_rate               0.0001 # miss rate (i.e., misses/ref)
itlb.repl_rate               0.0001 # replacement rate (i.e., repls/ref)
itlb.wb_rate                 0.0000 # writeback rate (i.e., wrbks/ref)
itlb.inv_rate                0.0000 # invalidation rate (i.e., invs/ref)
dtlb.accesses               8461369 # total number of accesses
dtlb.hits                   8460737 # total number of hits
dtlb.misses                     632 # total number of misses
dtlb.replacements               504 # total number of replacements
dtlb.writebacks                   0 # total number of writebacks
dtlb.invalidations                0 # total number of invalidations
dtlb.miss_rate               0.0001 # miss rate (i.e., misses/ref)
dtlb.repl_rate               0.0001 # replacement rate (i.e., repls/ref)
dtlb.wb_rate                 0.0000 # writeback rate (i.e., wrbks/ref)
dtlb.inv_rate                0.0000 # invalidation rate (i.e., invs/ref)
sim_invalid_addrs                 0 # total non-speculative bogus addresses seen (debug var)
ld_text_base             0x00400000 # program text (code) segment base
ld_text_size                 535584 # program text (code) size in bytes
ld_data_base             0x10000000 # program initialized data segment base
ld_data_size                  77204 # program init'ed `.data' and uninit'ed `.bss' size in bytes
ld_stack_base            0x7fffc000 # program stack segment base (highest address in stack)
ld_stack_size                 16384 # program initial stack size
ld_prog_entry            0x00400140 # program entry point (initial PC)
ld_environ_base          0x7fff8000 # program environment base address address
ld_target_big_endian              0 # target executable endian-ness, non-zero if big endian
mem.page_count                  422 # total number of pages allocated
mem.page_mem                  1688k # total size of memory pages allocated
mem.ptab_misses                 790 # total first level page table misses
mem.ptab_accesses         235015502 # total page table accesses
mem.ptab_miss_rate           0.0000 # first level page table miss rate

===== perl opcodecomb 32768 =====
sim-outorder: SimpleScalar/PISA Tool Set version 3.0 of March, 2023.
Copyright (c) 1994-2003 by Todd M. Austin, Ph.D. and SimpleScalar, LLC.
All Rights Reserved. This version of SimpleScalar is licensed for academic
non-commercial use.  No portion of this work may be used by any commercial
entity, or for any commercial purpose, without the prior written permission
of SimpleScalar, LLC (info@simplescalar.com).

sim: command line: ../simplesim-3.0/sim-outorder -bpred opcodecomb -bpred:opcodecomb 32768 perl.ss ../inputs/perl.in 

sim: simulation started @ Fri Apr 17 01:18:11 2026, options follow:

sim-outorder: This simulator implements a very detailed out-of-order issue
superscalar processor with a two-level memory system and speculative
execution support.  This simulator is a performance simulator, tracking the
latency of all pipeline operations.

# -config                     # load configuration from a file
# -dumpconfig                 # dump configuration to a file
# -h                    false # print help message    
# -v                    false # verbose operation     
# -d                    false # enable debug message  
# -i                    false # start in Dlite debugger
-seed                       1 # random number generator seed (0 for timer seed)
# -q                    false # initialize and terminate immediately
# -chkpt               <null> # restore EIO trace execution from <fname>
# -redir:sim           <null> # redirect simulator output to file (non-interactive only)
# -redir:prog          <null> # redirect simulated program output to file
-nice                       0 # simulator scheduling priority
-max:inst                   0 # maximum number of inst's to execute
-fastfwd                    0 # number of insts skipped before timing starts
# -ptrace              <null> # generate pipetrace, i.e., <fname|stdout|stderr> <range>
-fetch:ifqsize              4 # instruction fetch queue size (in insts)
-fetch:mplat                3 # extra branch mis-prediction latency
-fetch:speed                1 # speed of front-end of machine relative to execution core
-bpred             opcodecomb # branch predictor type {nottaken|taken|perfect|bimod|2lev|comb|opcodecomb}
-bpred:bimod     2048 # bimodal predictor config (<table size>)
-bpred:opcode    2048 # opcode predictor config (<table_size>)
-bpred:2lev      1 1024 8 0 # 2-level predictor config (<l1size> <l2size> <hist_size> <xor>)
-bpred:comb      1024 # combining predictor config (<meta_table_size>)
-bpred:opcodecomb 32768 # opcode hybrid combining predictor config (<meta_table_size>)
-bpred:ras                  8 # return address stack size (0 for no return stack)
-bpred:btb       512 4 # BTB config (<num_sets> <associativity>)
# -bpred:spec_update       <null> # speculative predictors update in {ID|WB} (default non-spec)
-decode:width               4 # instruction decode B/W (insts/cycle)
-issue:width                4 # instruction issue B/W (insts/cycle)
-issue:inorder          false # run pipeline with in-order issue
-issue:wrongpath         true # issue instructions down wrong execution paths
-commit:width               4 # instruction commit B/W (insts/cycle)
-ruu:size                  16 # register update unit (RUU) size
-lsq:size                   8 # load/store queue (LSQ) size
-cache:dl1       dl1:128:32:4:l # l1 data cache config, i.e., {<config>|none}
-cache:dl1lat               1 # l1 data cache hit latency (in cycles)
-cache:dl2       ul2:1024:64:4:l # l2 data cache config, i.e., {<config>|none}
-cache:dl2lat               6 # l2 data cache hit latency (in cycles)
-cache:il1       il1:512:32:1:l # l1 inst cache config, i.e., {<config>|dl1|dl2|none}
-cache:il1lat               1 # l1 instruction cache hit latency (in cycles)
-cache:il2                dl2 # l2 instruction cache config, i.e., {<config>|dl2|none}
-cache:il2lat               6 # l2 instruction cache hit latency (in cycles)
-cache:flush            false # flush caches on system calls
-cache:icompress        false # convert 64-bit inst addresses to 32-bit inst equivalents
-mem:lat         18 2 # memory access latency (<first_chunk> <inter_chunk>)
-mem:width                  8 # memory access bus width (in bytes)
-tlb:itlb        itlb:16:4096:4:l # instruction TLB config, i.e., {<config>|none}
-tlb:dtlb        dtlb:32:4096:4:l # data TLB config, i.e., {<config>|none}
-tlb:lat                   30 # inst/data TLB miss latency (in cycles)
-res:ialu                   4 # total number of integer ALU's available
-res:imult                  1 # total number of integer multiplier/dividers available
-res:memport                2 # total number of memory system ports available (to CPU)
-res:fpalu                  4 # total number of floating point ALU's available
-res:fpmult                 1 # total number of floating point multiplier/dividers available
# -pcstat              <null> # profile stat(s) against text addr's (mult uses ok)
-bugcompat              false # operate in backward-compatible bugs mode (for testing only)

  Pipetrace range arguments are formatted as follows:

    {{@|#}<start>}:{{@|#|+}<end>}

  Both ends of the range are optional, if neither are specified, the entire
  execution is traced.  Ranges that start with a `@' designate an address
  range to be traced, those that start with an `#' designate a cycle count
  range.  All other range values represent an instruction count range.  The
  second argument, if specified with a `+', indicates a value relative
  to the first argument, e.g., 1000:+100 == 1000:1100.  Program symbols may
  be used in all contexts.

    Examples:   -ptrace FOO.trc #0:#1000
                -ptrace BAR.trc @2000:
                -ptrace BLAH.trc :1500
                -ptrace UXXE.trc :
                -ptrace FOOBAR.trc @main:+278

  Branch predictor configuration examples for 2-level predictor:
    Configurations:   N, M, W, X
      N   # entries in first level (# of shift register(s))
      W   width of shift register(s)
      M   # entries in 2nd level (# of counters, or other FSM)
      X   (yes-1/no-0) xor history and address for 2nd level index
    Sample predictors:
      GAg     : 1, W, 2^W, 0
      GAp     : 1, W, M (M > 2^W), 0
      PAg     : N, W, 2^W, 0
      PAp     : N, W, M (M == 2^(N+W)), 0
      gshare  : 1, W, 2^W, 1
  Predictor `comb' combines a bimodal and a 2-level predictor.

  The cache config parameter <config> has the following format:

    <name>:<nsets>:<bsize>:<assoc>:<repl>

    <name>   - name of the cache being defined
    <nsets>  - number of sets in the cache
    <bsize>  - block size of the cache
    <assoc>  - associativity of the cache
    <repl>   - block replacement strategy, 'l'-LRU, 'f'-FIFO, 'r'-random

    Examples:   -cache:dl1 dl1:4096:32:1:l
                -dtlb dtlb:128:4096:32:r

  Cache levels can be unified by pointing a level of the instruction cache
  hierarchy at the data cache hiearchy using the "dl1" and "dl2" cache
  configuration arguments.  Most sensible combinations are supported, e.g.,

    A unified l2 cache (il2 is pointed at dl2):
      -cache:il1 il1:128:64:1:l -cache:il2 dl2
      -cache:dl1 dl1:256:32:1:l -cache:dl2 ul2:1024:64:2:l

    Or, a fully unified cache hierarchy (il1 pointed at dl1):
      -cache:il1 dl1
      -cache:dl1 ul1:256:32:1:l -cache:dl2 ul2:1024:64:2:l



sim: ** starting performance simulation **
Can't open tests.pl at ../inputs/perl.in line 462.
1..3
#1	:abcdef: eq :abcdef:
ok 1
#2	:abcdefxyz: eq :abcdefxyz:
ok 2
#3	:abcdef: eq :abcdef:
ok 3
1..36
ok 1
ok 2
ok 3
ok 4
ok 5
ok 6
ok 7
ok 8
ok 9
ok 10
ok 11
ok 12
ok 13
ok 14
ok 15
ok 16
ok 17
ok 18
ok 19
ok 20
ok 21
ok 22
ok 23
ok 24
ok 25
ok 26
ok 27
ok 28
ok 29
ok 30
ok 31
ok 32
ok 33
ok 34
ok 35
ok 36
1..34
ok 1
ok 2
ok 3
ok 4
ok 5
ok 6
ok 7
ok 8
ok 9
ok 10
ok 11
ok 12
ok 13
ok 14
ok 15
ok 16
ok 17
ok 18
ok 19
ok 20
ok 21
ok 22
ok 23
ok 24
ok 25
ok 26
ok 27
ok 28
ok 29
ok 30
ok 31
ok 32
ok 33
ok 34
1..4
ok 19
not ok 1 1abc
ok 2
ok 3
ok 4
1..4
ok 1
ok 2
ok 3
ok 4
1..6
ok 1
ok 2
ok 3
ok 4
not ok 5
ok 6
1..15
#2	:20: eq :value:
not ok 2
ok 3
#5	:20: eq :value:
not ok 5
ok 6
ok 7
#8	:value: eq :value:
ok 8
ok 9
ok 10
ok 11
ok 12
ok 13
ok 14
ok 15
1..3
ok 1
ok 2
ok 3
1..16
ok 1
ok 2
ok 3
ok 4
ok 5
ok 6
ok 7
ok 8
ok 9
ok 10
ok 11
ok 12
ok 13
ok 14
ok 15
ok 16
1..6
ok 1
ok 2
ok 3
ok 4
ok 5
ok 6
1..8
ok 1
ok 2
ok 3
ok 4
ok 5
ok 6
ok 7

sim: ** simulation statistics **
sim_num_insn               21950523 # total number of instructions committed
sim_num_refs                7998467 # total number of loads and stores committed
sim_num_loads               4735615 # total number of loads committed
sim_num_stores         3262852.0000 # total number of stores committed
sim_num_branches            4377016 # total number of branches committed
sim_elapsed_time                  6 # total simulation time in seconds
sim_inst_rate          3658420.5000 # simulation speed (in insts/sec)
sim_total_insn             28481522 # total number of instructions executed
sim_total_refs              9941283 # total number of loads and stores executed
sim_total_loads             5963768 # total number of loads executed
sim_total_stores       3977515.0000 # total number of stores executed
sim_total_branches          5698447 # total number of branches executed
sim_cycle                  28098838 # total simulation time in cycles
sim_IPC                      0.7812 # instructions per cycle
sim_CPI                      1.2801 # cycles per instruction
sim_exec_BW                  1.0136 # total instructions (mis-spec + committed) per cycle
sim_IPB                      5.0150 # instruction per branch
IFQ_count                  38190953 # cumulative IFQ occupancy
IFQ_fcount                  7634766 # cumulative IFQ full count
ifq_occupancy                1.3592 # avg IFQ occupancy (insn's)
ifq_rate                     1.0136 # avg IFQ dispatch rate (insn/cycle)
ifq_latency                  1.3409 # avg IFQ occupant latency (cycle's)
ifq_full                     0.2717 # fraction of time (cycle's) IFQ was full
RUU_count                 137292056 # cumulative RUU occupancy
RUU_fcount                  2390297 # cumulative RUU full count
ruu_occupancy                4.8860 # avg RUU occupancy (insn's)
ruu_rate                     1.0136 # avg RUU dispatch rate (insn/cycle)
ruu_latency                  4.8204 # avg RUU occupant latency (cycle's)
ruu_full                     0.0851 # fraction of time (cycle's) RUU was full
LSQ_count                  50385905 # cumulative LSQ occupancy
LSQ_fcount                  1250102 # cumulative LSQ full count
lsq_occupancy                1.7932 # avg LSQ occupancy (insn's)
lsq_rate                     1.0136 # avg LSQ dispatch rate (insn/cycle)
lsq_latency                  1.7691 # avg LSQ occupant latency (cycle's)
lsq_full                     0.0445 # fraction of time (cycle's) LSQ was full
sim_slip                  190797615 # total number of slip cycles
avg_sim_slip                 8.6922 # the average slip between issue and retirement
bpred_opcodecomb.lookups      6095609 # total number of bpred lookups
bpred_opcodecomb.updates      4377016 # total number of updates
bpred_opcodecomb.addr_hits      3168259 # total number of address-predicted hits
bpred_opcodecomb.dir_hits      3377180 # total number of direction-predicted hits (includes addr-hits)
bpred_opcodecomb.used_bimod      1889235 # total number of bimodal predictions used
bpred_opcodecomb.used_2lev      1469710 # total number of 2-level predictions used
bpred_opcodecomb.misses       999836 # total number of misses
bpred_opcodecomb.jr_hits       204986 # total number of address-predicted hits for JR's
bpred_opcodecomb.jr_seen       403513 # total number of JR's seen
bpred_opcodecomb.jr_non_ras_hits.PP       204986 # total number of address-predicted hits for non-RAS JR's
bpred_opcodecomb.jr_non_ras_seen.PP       403513 # total number of non-RAS JR's seen
bpred_opcodecomb.bpred_addr_rate    0.7238 # branch address-prediction rate (i.e., addr-hits/updates)
bpred_opcodecomb.bpred_dir_rate    0.7716 # branch direction-prediction rate (i.e., all-hits/updates)
bpred_opcodecomb.bpred_jr_rate    0.5080 # JR address-prediction rate (i.e., JR addr-hits/JRs seen)
bpred_opcodecomb.bpred_jr_non_ras_rate.PP    0.5080 # non-RAS JR addr-pred rate (ie, non-RAS JR hits/JRs seen)
bpred_opcodecomb.retstack_pushes       610267 # total number of address pushed onto ret-addr stack
bpred_opcodecomb.retstack_pops            0 # total number of address popped off of ret-addr stack
bpred_opcodecomb.used_ras.PP            0 # total number of RAS predictions used
bpred_opcodecomb.ras_hits.PP            0 # total number of RAS hits
bpred_opcodecomb.ras_rate.PP <error: divide by zero> # RAS prediction rate (i.e., RAS hits/used RAS)
il1.accesses               32699233 # total number of accesses
il1.hits                   30337388 # total number of hits
il1.misses                  2361845 # total number of misses
il1.replacements            2361333 # total number of replacements
il1.writebacks                    0 # total number of writebacks
il1.invalidations                 0 # total number of invalidations
il1.miss_rate                0.0722 # miss rate (i.e., misses/ref)
il1.repl_rate                0.0722 # replacement rate (i.e., repls/ref)
il1.wb_rate                  0.0000 # writeback rate (i.e., wrbks/ref)
il1.inv_rate                 0.0000 # invalidation rate (i.e., invs/ref)
dl1.accesses                8404487 # total number of accesses
dl1.hits                    8268413 # total number of hits
dl1.misses                   136074 # total number of misses
dl1.replacements             135562 # total number of replacements
dl1.writebacks                65554 # total number of writebacks
dl1.invalidations                 0 # total number of invalidations
dl1.miss_rate                0.0162 # miss rate (i.e., misses/ref)
dl1.repl_rate                0.0161 # replacement rate (i.e., repls/ref)
dl1.wb_rate                  0.0078 # writeback rate (i.e., wrbks/ref)
dl1.inv_rate                 0.0000 # invalidation rate (i.e., invs/ref)
ul2.accesses                2563473 # total number of accesses
ul2.hits                    2524005 # total number of hits
ul2.misses                    39468 # total number of misses
ul2.replacements              35372 # total number of replacements
ul2.writebacks                19283 # total number of writebacks
ul2.invalidations                 0 # total number of invalidations
ul2.miss_rate                0.0154 # miss rate (i.e., misses/ref)
ul2.repl_rate                0.0138 # replacement rate (i.e., repls/ref)
ul2.wb_rate                  0.0075 # writeback rate (i.e., wrbks/ref)
ul2.inv_rate                 0.0000 # invalidation rate (i.e., invs/ref)
itlb.accesses              32699233 # total number of accesses
itlb.hits                  32694941 # total number of hits
itlb.misses                    4292 # total number of misses
itlb.replacements              4228 # total number of replacements
itlb.writebacks                   0 # total number of writebacks
itlb.invalidations                0 # total number of invalidations
itlb.miss_rate               0.0001 # miss rate (i.e., misses/ref)
itlb.repl_rate               0.0001 # replacement rate (i.e., repls/ref)
itlb.wb_rate                 0.0000 # writeback rate (i.e., wrbks/ref)
itlb.inv_rate                0.0000 # invalidation rate (i.e., invs/ref)
dtlb.accesses               8461465 # total number of accesses
dtlb.hits                   8460833 # total number of hits
dtlb.misses                     632 # total number of misses
dtlb.replacements               504 # total number of replacements
dtlb.writebacks                   0 # total number of writebacks
dtlb.invalidations                0 # total number of invalidations
dtlb.miss_rate               0.0001 # miss rate (i.e., misses/ref)
dtlb.repl_rate               0.0001 # replacement rate (i.e., repls/ref)
dtlb.wb_rate                 0.0000 # writeback rate (i.e., wrbks/ref)
dtlb.inv_rate                0.0000 # invalidation rate (i.e., invs/ref)
sim_invalid_addrs                 0 # total non-speculative bogus addresses seen (debug var)
ld_text_base             0x00400000 # program text (code) segment base
ld_text_size                 535584 # program text (code) size in bytes
ld_data_base             0x10000000 # program initialized data segment base
ld_data_size                  77204 # program init'ed `.data' and uninit'ed `.bss' size in bytes
ld_stack_base            0x7fffc000 # program stack segment base (highest address in stack)
ld_stack_size                 16384 # program initial stack size
ld_prog_entry            0x00400140 # program entry point (initial PC)
ld_environ_base          0x7fff8000 # program environment base address address
ld_target_big_endian              0 # target executable endian-ness, non-zero if big endian
mem.page_count                  422 # total number of pages allocated
mem.page_mem                  1688k # total size of memory pages allocated
mem.ptab_misses                 789 # total first level page table misses
mem.ptab_accesses         235041681 # total page table accesses
mem.ptab_miss_rate           0.0000 # first level page table miss rate

